* NGSPICE file created from tt_um_hugodiasg_temp_sensor_clock_divider.ext - technology: sky130A

.subckt sky130_fd_pr__pfet_01v8_FRXWNM a_n100_n297# a_100_n200# w_n194_n300# a_n158_n200#
X0 a_100_n200# a_n100_n297# a_n158_n200# w_n194_n300# sky130_fd_pr__pfet_01v8 ad=0.58 pd=4.58 as=0.58 ps=4.58 w=2 l=1
.ends

.subckt sky130_fd_pr__pfet_01v8_FVXEPM a_n100_n297# a_100_n200# w_n194_n300# a_n158_n200#
X0 a_100_n200# a_n100_n297# a_n158_n200# w_n194_n300# sky130_fd_pr__pfet_01v8 ad=0.58 pd=4.58 as=0.58 ps=4.58 w=2 l=1
.ends

.subckt sky130_fd_pr__pfet_01v8_FVTXNM a_29_n297# a_n287_n200# a_n229_n297# a_229_n200#
+ a_n29_n200# w_n323_n300#
X0 a_229_n200# a_29_n297# a_n29_n200# w_n323_n300# sky130_fd_pr__pfet_01v8 ad=0.58 pd=4.58 as=0.29 ps=2.29 w=2 l=1
X1 a_n29_n200# a_n229_n297# a_n287_n200# w_n323_n300# sky130_fd_pr__pfet_01v8 ad=0.29 pd=2.29 as=0.58 ps=4.58 w=2 l=1
.ends

.subckt sky130_fd_pr__pfet_01v8_3HGYVM a_n100_n297# a_100_n200# w_n194_n300# a_n158_n200#
X0 a_100_n200# a_n100_n297# a_n158_n200# w_n194_n300# sky130_fd_pr__pfet_01v8 ad=0.58 pd=4.58 as=0.58 ps=4.58 w=2 l=1
.ends

.subckt sky130_fd_pr__pfet_01v8_SKTYVM a_n500_n297# a_500_n200# w_n594_n300# a_n558_n200#
X0 a_500_n200# a_n500_n297# a_n558_n200# w_n594_n300# sky130_fd_pr__pfet_01v8 ad=0.58 pd=4.58 as=0.58 ps=4.58 w=2 l=5
.ends

.subckt sky130_fd_pr__nfet_01v8_9VJR3B a_100_527# a_n158_n727# a_100_n309# a_n100_21#
+ a_n158_n309# a_100_109# a_n158_527# a_n100_n815# a_n100_439# a_n158_109# a_100_n727#
+ a_n100_n397# VSUBS
X0 a_100_n309# a_n100_n397# a_n158_n309# VSUBS sky130_fd_pr__nfet_01v8 ad=0.29 pd=2.58 as=0.29 ps=2.58 w=1 l=1
X1 a_100_527# a_n100_439# a_n158_527# VSUBS sky130_fd_pr__nfet_01v8 ad=0.29 pd=2.58 as=0.29 ps=2.58 w=1 l=1
X2 a_100_n727# a_n100_n815# a_n158_n727# VSUBS sky130_fd_pr__nfet_01v8 ad=0.29 pd=2.58 as=0.29 ps=2.58 w=1 l=1
X3 a_100_109# a_n100_21# a_n158_109# VSUBS sky130_fd_pr__nfet_01v8 ad=0.29 pd=2.58 as=0.29 ps=2.58 w=1 l=1
.ends

.subckt sky130_fd_pr__pfet_01v8_YAWWFM a_29_n297# a_n287_n200# w_n581_n300# a_n229_n297#
+ a_287_n297# a_229_n200# a_n545_n200# a_n487_n297# a_487_n200# a_n29_n200#
X0 a_229_n200# a_29_n297# a_n29_n200# w_n581_n300# sky130_fd_pr__pfet_01v8 ad=0.29 pd=2.29 as=0.29 ps=2.29 w=2 l=1
X1 a_n29_n200# a_n229_n297# a_n287_n200# w_n581_n300# sky130_fd_pr__pfet_01v8 ad=0.29 pd=2.29 as=0.29 ps=2.29 w=2 l=1
X2 a_n287_n200# a_n487_n297# a_n545_n200# w_n581_n300# sky130_fd_pr__pfet_01v8 ad=0.29 pd=2.29 as=0.58 ps=4.58 w=2 l=1
X3 a_487_n200# a_287_n297# a_229_n200# w_n581_n300# sky130_fd_pr__pfet_01v8 ad=0.58 pd=4.58 as=0.29 ps=2.29 w=2 l=1
.ends

.subckt sky130_fd_pr__pfet_01v8_YAEUFM a_29_n297# a_n287_n200# a_n1061_n200# a_n745_n297#
+ a_745_n200# a_803_n297# a_n229_n297# a_n1003_n297# a_287_n297# a_229_n200# a_n545_n200#
+ a_1003_n200# a_n487_n297# a_487_n200# a_n29_n200# a_545_n297# a_n803_n200# w_n1097_n300#
X0 a_229_n200# a_29_n297# a_n29_n200# w_n1097_n300# sky130_fd_pr__pfet_01v8 ad=0.29 pd=2.29 as=0.29 ps=2.29 w=2 l=1
X1 a_n29_n200# a_n229_n297# a_n287_n200# w_n1097_n300# sky130_fd_pr__pfet_01v8 ad=0.29 pd=2.29 as=0.29 ps=2.29 w=2 l=1
X2 a_n545_n200# a_n745_n297# a_n803_n200# w_n1097_n300# sky130_fd_pr__pfet_01v8 ad=0.29 pd=2.29 as=0.29 ps=2.29 w=2 l=1
X3 a_n287_n200# a_n487_n297# a_n545_n200# w_n1097_n300# sky130_fd_pr__pfet_01v8 ad=0.29 pd=2.29 as=0.29 ps=2.29 w=2 l=1
X4 a_n803_n200# a_n1003_n297# a_n1061_n200# w_n1097_n300# sky130_fd_pr__pfet_01v8 ad=0.29 pd=2.29 as=0.58 ps=4.58 w=2 l=1
X5 a_1003_n200# a_803_n297# a_745_n200# w_n1097_n300# sky130_fd_pr__pfet_01v8 ad=0.58 pd=4.58 as=0.29 ps=2.29 w=2 l=1
X6 a_745_n200# a_545_n297# a_487_n200# w_n1097_n300# sky130_fd_pr__pfet_01v8 ad=0.29 pd=2.29 as=0.29 ps=2.29 w=2 l=1
X7 a_487_n200# a_287_n297# a_229_n200# w_n1097_n300# sky130_fd_pr__pfet_01v8 ad=0.29 pd=2.29 as=0.29 ps=2.29 w=2 l=1
.ends

.subckt sensor vd vts vtd gnd
Xsky130_fd_pr__pfet_01v8_FRXWNM_0 vd vd vd vd sky130_fd_pr__pfet_01v8_FRXWNM
Xsky130_fd_pr__pfet_01v8_FRXWNM_1 vd vd vd vd sky130_fd_pr__pfet_01v8_FRXWNM
Xsky130_fd_pr__pfet_01v8_FRXWNM_2 vd vd vd vd sky130_fd_pr__pfet_01v8_FRXWNM
Xsky130_fd_pr__pfet_01v8_FRXWNM_3 vts vts vts vts sky130_fd_pr__pfet_01v8_FRXWNM
Xsky130_fd_pr__pfet_01v8_FVXEPM_0 c c vd c sky130_fd_pr__pfet_01v8_FVXEPM
Xsky130_fd_pr__pfet_01v8_FRXWNM_4 vts vts vts vts sky130_fd_pr__pfet_01v8_FRXWNM
XXP1 a a a a vd vd sky130_fd_pr__pfet_01v8_FVTXNM
XXP3 vtd d vd vd sky130_fd_pr__pfet_01v8_3HGYVM
XXP4 vtd vd vd vts sky130_fd_pr__pfet_01v8_SKTYVM
Xsky130_fd_pr__nfet_01v8_9VJR3B_0 gnd gnd gnd gnd gnd gnd gnd gnd gnd gnd gnd gnd
+ gnd sky130_fd_pr__nfet_01v8_9VJR3B
Xsky130_fd_pr__nfet_01v8_9VJR3B_1 gnd a gnd b a gnd a b b a gnd b gnd sky130_fd_pr__nfet_01v8_9VJR3B
Xsky130_fd_pr__nfet_01v8_9VJR3B_2 a gnd a b gnd a gnd b b gnd a b gnd sky130_fd_pr__nfet_01v8_9VJR3B
Xsky130_fd_pr__nfet_01v8_9VJR3B_3 gnd vtd gnd b vtd gnd vtd b b vtd gnd b gnd sky130_fd_pr__nfet_01v8_9VJR3B
Xsky130_fd_pr__nfet_01v8_9VJR3B_4 vtd gnd vtd b gnd vtd gnd b b gnd vtd b gnd sky130_fd_pr__nfet_01v8_9VJR3B
Xsky130_fd_pr__nfet_01v8_9VJR3B_5 gnd b gnd b b gnd b b b b gnd b gnd sky130_fd_pr__nfet_01v8_9VJR3B
Xsky130_fd_pr__nfet_01v8_9VJR3B_6 gnd gnd gnd gnd gnd gnd gnd gnd gnd gnd gnd gnd
+ gnd sky130_fd_pr__nfet_01v8_9VJR3B
Xsky130_fd_pr__nfet_01v8_9VJR3B_7 b gnd b b gnd b gnd b b gnd b b gnd sky130_fd_pr__nfet_01v8_9VJR3B
Xsky130_fd_pr__pfet_01v8_YAWWFM_0 a d vd a a d c a c c sky130_fd_pr__pfet_01v8_YAWWFM
Xsky130_fd_pr__pfet_01v8_YAWWFM_1 vtd b vd vtd vtd b c vtd c c sky130_fd_pr__pfet_01v8_YAWWFM
Xsky130_fd_pr__pfet_01v8_YAEUFM_0 vtd vts vtd vtd vts vtd vtd vtd vtd vts vtd vtd
+ vtd vtd vtd vtd vts vts sky130_fd_pr__pfet_01v8_YAEUFM
.ends

.subckt sky130_fd_sc_hd__decap_8 VPWR VGND VPB VNB
X0 VPWR VGND VPWR VPB sky130_fd_pr__pfet_01v8_hvt ad=0.2262 pd=2.26 as=0.4524 ps=4.52 w=0.87 l=2.89
X1 VGND VPWR VGND VNB sky130_fd_pr__nfet_01v8 ad=0.143 pd=1.62 as=0.286 ps=3.24 w=0.55 l=2.89
.ends

.subckt sky130_ef_sc_hd__decap_12 VGND VPWR VPB VNB
X0 VPWR VGND VPWR VPB sky130_fd_pr__pfet_01v8_hvt ad=0.2262 pd=2.26 as=0.4524 ps=4.52 w=0.87 l=4.73
X1 VGND VPWR VGND VNB sky130_fd_pr__nfet_01v8 ad=0.143 pd=1.62 as=0.286 ps=3.24 w=0.55 l=4.73
.ends

.subckt sky130_fd_sc_hd__dfxtp_1 Q CLK D VPB VNB VPWR VGND
X0 Q a_1059_315# VGND VNB sky130_fd_pr__nfet_01v8 ad=0.169 pd=1.82 as=0.08775 ps=0.92 w=0.65 l=0.15
X1 a_891_413# a_193_47# a_634_159# VNB sky130_fd_pr__special_nfet_01v8 ad=0.0684 pd=0.74 as=0.0989 ps=0.995 w=0.36 l=0.15
X2 a_561_413# a_27_47# a_466_413# VPB sky130_fd_pr__pfet_01v8_hvt ad=0.07665 pd=0.785 as=0.06825 ps=0.745 w=0.42 l=0.15
X3 VPWR CLK a_27_47# VPB sky130_fd_pr__pfet_01v8_hvt ad=0.0864 pd=0.91 as=0.1664 ps=1.8 w=0.64 l=0.15
X4 Q a_1059_315# VPWR VPB sky130_fd_pr__pfet_01v8_hvt ad=0.26 pd=2.52 as=0.135 ps=1.27 w=1 l=0.15
X5 a_381_47# D VPWR VPB sky130_fd_pr__pfet_01v8_hvt ad=0.05775 pd=0.695 as=0.1092 ps=1.36 w=0.42 l=0.15
X6 VGND a_634_159# a_592_47# VNB sky130_fd_pr__nfet_01v8 ad=0.12095 pd=1.085 as=0.0696 ps=0.765 w=0.42 l=0.15
X7 VPWR a_891_413# a_1059_315# VPB sky130_fd_pr__pfet_01v8_hvt ad=0.135 pd=1.27 as=0.27 ps=2.54 w=1 l=0.15
X8 a_466_413# a_193_47# a_381_47# VPB sky130_fd_pr__pfet_01v8_hvt ad=0.06825 pd=0.745 as=0.05775 ps=0.695 w=0.42 l=0.15
X9 VPWR a_634_159# a_561_413# VPB sky130_fd_pr__pfet_01v8_hvt ad=0.178875 pd=1.26 as=0.07665 ps=0.785 w=0.42 l=0.15
X10 a_634_159# a_466_413# VGND VNB sky130_fd_pr__nfet_01v8 ad=0.0989 pd=0.995 as=0.12095 ps=1.085 w=0.64 l=0.15
X11 a_634_159# a_466_413# VPWR VPB sky130_fd_pr__pfet_01v8_hvt ad=0.1095 pd=1.075 as=0.178875 ps=1.26 w=0.75 l=0.15
X12 a_975_413# a_193_47# a_891_413# VPB sky130_fd_pr__pfet_01v8_hvt ad=0.0882 pd=0.84 as=0.0567 ps=0.69 w=0.42 l=0.15
X13 VGND a_1059_315# a_1017_47# VNB sky130_fd_pr__nfet_01v8 ad=0.1092 pd=1.36 as=0.066 ps=0.745 w=0.42 l=0.15
X14 a_193_47# a_27_47# VGND VNB sky130_fd_pr__nfet_01v8 ad=0.1092 pd=1.36 as=0.0567 ps=0.69 w=0.42 l=0.15
X15 a_891_413# a_27_47# a_634_159# VPB sky130_fd_pr__pfet_01v8_hvt ad=0.0567 pd=0.69 as=0.1095 ps=1.075 w=0.42 l=0.15
X16 a_592_47# a_193_47# a_466_413# VNB sky130_fd_pr__special_nfet_01v8 ad=0.0696 pd=0.765 as=0.0621 ps=0.705 w=0.36 l=0.15
X17 VPWR a_1059_315# a_975_413# VPB sky130_fd_pr__pfet_01v8_hvt ad=0.1113 pd=1.37 as=0.0882 ps=0.84 w=0.42 l=0.15
X18 a_1017_47# a_27_47# a_891_413# VNB sky130_fd_pr__special_nfet_01v8 ad=0.066 pd=0.745 as=0.0684 ps=0.74 w=0.36 l=0.15
X19 a_193_47# a_27_47# VPWR VPB sky130_fd_pr__pfet_01v8_hvt ad=0.1664 pd=1.8 as=0.0864 ps=0.91 w=0.64 l=0.15
X20 a_466_413# a_27_47# a_381_47# VNB sky130_fd_pr__special_nfet_01v8 ad=0.0621 pd=0.705 as=0.0813 ps=0.83 w=0.36 l=0.15
X21 VGND a_891_413# a_1059_315# VNB sky130_fd_pr__nfet_01v8 ad=0.08775 pd=0.92 as=0.169 ps=1.82 w=0.65 l=0.15
X22 a_381_47# D VGND VNB sky130_fd_pr__nfet_01v8 ad=0.0813 pd=0.83 as=0.1092 ps=1.36 w=0.42 l=0.15
X23 VGND CLK a_27_47# VNB sky130_fd_pr__nfet_01v8 ad=0.0567 pd=0.69 as=0.1092 ps=1.36 w=0.42 l=0.15
.ends

.subckt sky130_fd_sc_hd__decap_3 VPWR VGND VPB VNB
X0 VPWR VGND VPWR VPB sky130_fd_pr__pfet_01v8_hvt ad=0.2262 pd=2.26 as=0.4524 ps=4.52 w=0.87 l=0.59
X1 VGND VPWR VGND VNB sky130_fd_pr__nfet_01v8 ad=0.143 pd=1.62 as=0.286 ps=3.24 w=0.55 l=0.59
.ends

.subckt sky130_fd_sc_hd__and3_1 VGND VPWR X B A C VPB VNB
X0 VPWR A a_27_47# VPB sky130_fd_pr__pfet_01v8_hvt ad=0.0567 pd=0.69 as=0.1092 ps=1.36 w=0.42 l=0.15
X1 VPWR C a_27_47# VPB sky130_fd_pr__pfet_01v8_hvt ad=0.142225 pd=1.335 as=0.06615 ps=0.735 w=0.42 l=0.15
X2 a_181_47# B a_109_47# VNB sky130_fd_pr__nfet_01v8 ad=0.0441 pd=0.63 as=0.0441 ps=0.63 w=0.42 l=0.15
X3 VGND C a_181_47# VNB sky130_fd_pr__nfet_01v8 ad=0.13165 pd=1.14 as=0.0441 ps=0.63 w=0.42 l=0.15
X4 a_27_47# B VPWR VPB sky130_fd_pr__pfet_01v8_hvt ad=0.06615 pd=0.735 as=0.0567 ps=0.69 w=0.42 l=0.15
X5 X a_27_47# VPWR VPB sky130_fd_pr__pfet_01v8_hvt ad=0.26 pd=2.52 as=0.142225 ps=1.335 w=1 l=0.15
X6 X a_27_47# VGND VNB sky130_fd_pr__nfet_01v8 ad=0.169 pd=1.82 as=0.13165 ps=1.14 w=0.65 l=0.15
X7 a_109_47# A a_27_47# VNB sky130_fd_pr__nfet_01v8 ad=0.0441 pd=0.63 as=0.1092 ps=1.36 w=0.42 l=0.15
.ends

.subckt sky130_fd_sc_hd__nand2_1 VPB VNB VGND VPWR A Y B
X0 VPWR A Y VPB sky130_fd_pr__pfet_01v8_hvt ad=0.26 pd=2.52 as=0.135 ps=1.27 w=1 l=0.15
X1 Y A a_113_47# VNB sky130_fd_pr__nfet_01v8 ad=0.169 pd=1.82 as=0.08775 ps=0.92 w=0.65 l=0.15
X2 a_113_47# B VGND VNB sky130_fd_pr__nfet_01v8 ad=0.08775 pd=0.92 as=0.169 ps=1.82 w=0.65 l=0.15
X3 Y B VPWR VPB sky130_fd_pr__pfet_01v8_hvt ad=0.135 pd=1.27 as=0.26 ps=2.52 w=1 l=0.15
.ends

.subckt sky130_fd_sc_hd__xnor2_1 VGND VPWR B Y A VPB VNB
X0 a_377_297# A VPWR VPB sky130_fd_pr__pfet_01v8_hvt ad=0.105 pd=1.21 as=0.365 ps=1.73 w=1 l=0.15
X1 a_47_47# B VPWR VPB sky130_fd_pr__pfet_01v8_hvt ad=0.135 pd=1.27 as=0.3 ps=2.6 w=1 l=0.15
X2 a_129_47# B a_47_47# VNB sky130_fd_pr__nfet_01v8 ad=0.06825 pd=0.86 as=0.169 ps=1.82 w=0.65 l=0.15
X3 a_285_47# B VGND VNB sky130_fd_pr__nfet_01v8 ad=0.08775 pd=0.92 as=0.169 ps=1.82 w=0.65 l=0.15
X4 Y a_47_47# a_285_47# VNB sky130_fd_pr__nfet_01v8 ad=0.195 pd=1.9 as=0.08775 ps=0.92 w=0.65 l=0.15
X5 VGND A a_129_47# VNB sky130_fd_pr__nfet_01v8 ad=0.08775 pd=0.92 as=0.06825 ps=0.86 w=0.65 l=0.15
X6 VPWR A a_47_47# VPB sky130_fd_pr__pfet_01v8_hvt ad=0.365 pd=1.73 as=0.135 ps=1.27 w=1 l=0.15
X7 VPWR a_47_47# Y VPB sky130_fd_pr__pfet_01v8_hvt ad=0.36 pd=2.72 as=0.165 ps=1.33 w=1 l=0.15
X8 Y B a_377_297# VPB sky130_fd_pr__pfet_01v8_hvt ad=0.165 pd=1.33 as=0.105 ps=1.21 w=1 l=0.15
X9 a_285_47# A VGND VNB sky130_fd_pr__nfet_01v8 ad=0.169 pd=1.82 as=0.08775 ps=0.92 w=0.65 l=0.15
.ends

.subckt sky130_fd_sc_hd__or3_1 VPWR VGND VPB VNB B C A X
X0 X a_29_53# VPWR VPB sky130_fd_pr__pfet_01v8_hvt ad=0.28 pd=2.56 as=0.14825 ps=1.34 w=1 l=0.15
X1 a_111_297# C a_29_53# VPB sky130_fd_pr__pfet_01v8_hvt ad=0.0441 pd=0.63 as=0.1092 ps=1.36 w=0.42 l=0.15
X2 X a_29_53# VGND VNB sky130_fd_pr__nfet_01v8 ad=0.182 pd=1.86 as=0.101875 ps=0.99 w=0.65 l=0.15
X3 a_183_297# B a_111_297# VPB sky130_fd_pr__pfet_01v8_hvt ad=0.0693 pd=0.75 as=0.0441 ps=0.63 w=0.42 l=0.15
X4 VPWR A a_183_297# VPB sky130_fd_pr__pfet_01v8_hvt ad=0.14825 pd=1.34 as=0.0693 ps=0.75 w=0.42 l=0.15
X5 a_29_53# B VGND VNB sky130_fd_pr__nfet_01v8 ad=0.0567 pd=0.69 as=0.0567 ps=0.69 w=0.42 l=0.15
X6 VGND C a_29_53# VNB sky130_fd_pr__nfet_01v8 ad=0.0567 pd=0.69 as=0.1092 ps=1.36 w=0.42 l=0.15
X7 VGND A a_29_53# VNB sky130_fd_pr__nfet_01v8 ad=0.101875 pd=0.99 as=0.0567 ps=0.69 w=0.42 l=0.15
.ends

.subckt sky130_fd_sc_hd__nand2b_1 VPB VNB VGND VPWR A_N B Y
X0 VGND A_N a_27_93# VNB sky130_fd_pr__nfet_01v8 ad=0.10025 pd=0.985 as=0.1092 ps=1.36 w=0.42 l=0.15
X1 Y a_27_93# a_206_47# VNB sky130_fd_pr__nfet_01v8 ad=0.169 pd=1.82 as=0.08775 ps=0.92 w=0.65 l=0.15
X2 a_206_47# B VGND VNB sky130_fd_pr__nfet_01v8 ad=0.08775 pd=0.92 as=0.10025 ps=0.985 w=0.65 l=0.15
X3 VPWR a_27_93# Y VPB sky130_fd_pr__pfet_01v8_hvt ad=0.265 pd=2.53 as=0.135 ps=1.27 w=1 l=0.15
X4 Y B VPWR VPB sky130_fd_pr__pfet_01v8_hvt ad=0.135 pd=1.27 as=0.14575 ps=1.335 w=1 l=0.15
X5 VPWR A_N a_27_93# VPB sky130_fd_pr__pfet_01v8_hvt ad=0.14575 pd=1.335 as=0.1092 ps=1.36 w=0.42 l=0.15
.ends

.subckt sky130_fd_sc_hd__and2_1 VPWR VGND X B A VPB VNB
X0 VPWR B a_59_75# VPB sky130_fd_pr__pfet_01v8_hvt ad=0.16655 pd=1.39 as=0.0567 ps=0.69 w=0.42 l=0.15
X1 X a_59_75# VPWR VPB sky130_fd_pr__pfet_01v8_hvt ad=0.475 pd=2.95 as=0.16655 ps=1.39 w=1 l=0.15
X2 VGND B a_145_75# VNB sky130_fd_pr__nfet_01v8 ad=0.1118 pd=1.04 as=0.0567 ps=0.69 w=0.42 l=0.15
X3 a_59_75# A VPWR VPB sky130_fd_pr__pfet_01v8_hvt ad=0.0567 pd=0.69 as=0.1176 ps=1.4 w=0.42 l=0.15
X4 X a_59_75# VGND VNB sky130_fd_pr__nfet_01v8 ad=0.182 pd=1.86 as=0.1118 ps=1.04 w=0.65 l=0.15
X5 a_145_75# A a_59_75# VNB sky130_fd_pr__nfet_01v8 ad=0.0567 pd=0.69 as=0.1176 ps=1.4 w=0.42 l=0.15
.ends

.subckt sky130_fd_sc_hd__or3_4 VPB VNB VPWR VGND B C A X
X0 X a_27_47# VGND VNB sky130_fd_pr__nfet_01v8 ad=0.08775 pd=0.92 as=0.26 ps=1.45 w=0.65 l=0.15
X1 X a_27_47# VPWR VPB sky130_fd_pr__pfet_01v8_hvt ad=0.135 pd=1.27 as=0.4 ps=1.8 w=1 l=0.15
X2 X a_27_47# VGND VNB sky130_fd_pr__nfet_01v8 ad=0.08775 pd=0.92 as=0.08775 ps=0.92 w=0.65 l=0.15
X3 VGND a_27_47# X VNB sky130_fd_pr__nfet_01v8 ad=0.20475 pd=1.93 as=0.08775 ps=0.92 w=0.65 l=0.15
X4 VPWR A a_193_297# VPB sky130_fd_pr__pfet_01v8_hvt ad=0.4 pd=1.8 as=0.135 ps=1.27 w=1 l=0.15
X5 a_193_297# B a_109_297# VPB sky130_fd_pr__pfet_01v8_hvt ad=0.135 pd=1.27 as=0.135 ps=1.27 w=1 l=0.15
X6 a_27_47# B VGND VNB sky130_fd_pr__nfet_01v8 ad=0.08775 pd=0.92 as=0.08775 ps=0.92 w=0.65 l=0.15
X7 VPWR a_27_47# X VPB sky130_fd_pr__pfet_01v8_hvt ad=0.36 pd=2.72 as=0.135 ps=1.27 w=1 l=0.15
X8 VGND A a_27_47# VNB sky130_fd_pr__nfet_01v8 ad=0.26 pd=1.45 as=0.08775 ps=0.92 w=0.65 l=0.15
X9 VGND a_27_47# X VNB sky130_fd_pr__nfet_01v8 ad=0.08775 pd=0.92 as=0.08775 ps=0.92 w=0.65 l=0.15
X10 X a_27_47# VPWR VPB sky130_fd_pr__pfet_01v8_hvt ad=0.135 pd=1.27 as=0.135 ps=1.27 w=1 l=0.15
X11 VPWR a_27_47# X VPB sky130_fd_pr__pfet_01v8_hvt ad=0.135 pd=1.27 as=0.135 ps=1.27 w=1 l=0.15
X12 a_109_297# C a_27_47# VPB sky130_fd_pr__pfet_01v8_hvt ad=0.135 pd=1.27 as=0.26 ps=2.52 w=1 l=0.15
X13 VGND C a_27_47# VNB sky130_fd_pr__nfet_01v8 ad=0.08775 pd=0.92 as=0.169 ps=1.82 w=0.65 l=0.15
.ends

.subckt sky130_fd_sc_hd__decap_4 VGND VPWR VPB VNB
X0 VPWR VGND VPWR VPB sky130_fd_pr__pfet_01v8_hvt ad=0.2262 pd=2.26 as=0.4524 ps=4.52 w=0.87 l=1.05
X1 VGND VPWR VGND VNB sky130_fd_pr__nfet_01v8 ad=0.143 pd=1.62 as=0.286 ps=3.24 w=0.55 l=1.05
.ends

.subckt sky130_fd_sc_hd__a21oi_1 VPWR VGND VPB VNB A2 A1 B1 Y
X0 a_199_47# A1 Y VNB sky130_fd_pr__nfet_01v8 ad=0.095875 pd=0.945 as=0.091 ps=0.93 w=0.65 l=0.15
X1 a_113_297# A2 VPWR VPB sky130_fd_pr__pfet_01v8_hvt ad=0.265 pd=2.53 as=0.1475 ps=1.295 w=1 l=0.15
X2 Y B1 VGND VNB sky130_fd_pr__nfet_01v8 ad=0.091 pd=0.93 as=0.17225 ps=1.83 w=0.65 l=0.15
X3 VPWR A1 a_113_297# VPB sky130_fd_pr__pfet_01v8_hvt ad=0.1475 pd=1.295 as=0.14 ps=1.28 w=1 l=0.15
X4 a_113_297# B1 Y VPB sky130_fd_pr__pfet_01v8_hvt ad=0.14 pd=1.28 as=0.265 ps=2.53 w=1 l=0.15
X5 VGND A2 a_199_47# VNB sky130_fd_pr__nfet_01v8 ad=0.17225 pd=1.83 as=0.095875 ps=0.945 w=0.65 l=0.15
.ends

.subckt sky130_fd_sc_hd__and3b_1 A_N B X C VGND VPWR VPB VNB
X0 a_109_93# A_N VGND VNB sky130_fd_pr__nfet_01v8 ad=0.10785 pd=1.36 as=0.1092 ps=1.36 w=0.42 l=0.15
X1 X a_209_311# VPWR VPB sky130_fd_pr__pfet_01v8_hvt ad=0.26 pd=2.52 as=0.142225 ps=1.335 w=1 l=0.15
X2 a_109_93# A_N VPWR VPB sky130_fd_pr__pfet_01v8_hvt ad=0.1087 pd=1.36 as=0.1092 ps=1.36 w=0.42 l=0.15
X3 a_296_53# a_109_93# a_209_311# VNB sky130_fd_pr__nfet_01v8 ad=0.0441 pd=0.63 as=0.107825 ps=1.36 w=0.42 l=0.15
X4 VPWR C a_209_311# VPB sky130_fd_pr__pfet_01v8_hvt ad=0.142225 pd=1.335 as=0.074375 ps=0.815 w=0.42 l=0.15
X5 a_368_53# B a_296_53# VNB sky130_fd_pr__nfet_01v8 ad=0.05355 pd=0.675 as=0.0441 ps=0.63 w=0.42 l=0.15
X6 X a_209_311# VGND VNB sky130_fd_pr__nfet_01v8 ad=0.169 pd=1.82 as=0.122275 ps=1.08 w=0.65 l=0.15
X7 a_209_311# B VPWR VPB sky130_fd_pr__pfet_01v8_hvt ad=0.074375 pd=0.815 as=0.0567 ps=0.69 w=0.42 l=0.15
X8 VPWR a_109_93# a_209_311# VPB sky130_fd_pr__pfet_01v8_hvt ad=0.0567 pd=0.69 as=0.1085 ps=1.36 w=0.42 l=0.15
X9 VGND C a_368_53# VNB sky130_fd_pr__nfet_01v8 ad=0.122275 pd=1.08 as=0.05355 ps=0.675 w=0.42 l=0.15
.ends

.subckt sky130_fd_sc_hd__decap_6 VPWR VGND VPB VNB
X0 VPWR VGND VPWR VPB sky130_fd_pr__pfet_01v8_hvt ad=0.2262 pd=2.26 as=0.4524 ps=4.52 w=0.87 l=1.97
X1 VGND VPWR VGND VNB sky130_fd_pr__nfet_01v8 ad=0.143 pd=1.62 as=0.286 ps=3.24 w=0.55 l=1.97
.ends

.subckt sky130_fd_sc_hd__a21boi_2 VNB VPB VPWR VGND B1_N A2 Y A1
X0 Y a_61_47# VGND VNB sky130_fd_pr__nfet_01v8 ad=0.08775 pd=0.92 as=0.183125 ps=1.24 w=0.65 l=0.15
X1 VPWR A2 a_217_297# VPB sky130_fd_pr__pfet_01v8_hvt ad=0.135 pd=1.27 as=0.135 ps=1.27 w=1 l=0.15
X2 a_217_297# a_61_47# Y VPB sky130_fd_pr__pfet_01v8_hvt ad=0.135 pd=1.27 as=0.135 ps=1.27 w=1 l=0.15
X3 a_479_47# A2 VGND VNB sky130_fd_pr__nfet_01v8 ad=0.06825 pd=0.86 as=0.10725 ps=0.98 w=0.65 l=0.15
X4 a_217_297# A2 VPWR VPB sky130_fd_pr__pfet_01v8_hvt ad=0.285 pd=2.57 as=0.14 ps=1.28 w=1 l=0.15
X5 Y a_61_47# a_217_297# VPB sky130_fd_pr__pfet_01v8_hvt ad=0.135 pd=1.27 as=0.26 ps=2.52 w=1 l=0.15
X6 VPWR A1 a_217_297# VPB sky130_fd_pr__pfet_01v8_hvt ad=0.14 pd=1.28 as=0.14 ps=1.28 w=1 l=0.15
X7 a_61_47# B1_N VPWR VPB sky130_fd_pr__pfet_01v8_hvt ad=0.1113 pd=1.37 as=0.1113 ps=1.37 w=0.42 l=0.15
X8 VGND A2 a_637_47# VNB sky130_fd_pr__nfet_01v8 ad=0.18525 pd=1.87 as=0.091 ps=0.93 w=0.65 l=0.15
X9 VGND a_61_47# Y VNB sky130_fd_pr__nfet_01v8 ad=0.10725 pd=0.98 as=0.08775 ps=0.92 w=0.65 l=0.15
X10 Y A1 a_479_47# VNB sky130_fd_pr__nfet_01v8 ad=0.091 pd=0.93 as=0.06825 ps=0.86 w=0.65 l=0.15
X11 VGND B1_N a_61_47# VNB sky130_fd_pr__nfet_01v8 ad=0.183125 pd=1.24 as=0.126 ps=1.44 w=0.42 l=0.15
X12 a_217_297# A1 VPWR VPB sky130_fd_pr__pfet_01v8_hvt ad=0.14 pd=1.28 as=0.135 ps=1.27 w=1 l=0.15
X13 a_637_47# A1 Y VNB sky130_fd_pr__nfet_01v8 ad=0.091 pd=0.93 as=0.091 ps=0.93 w=0.65 l=0.15
.ends

.subckt sky130_fd_sc_hd__a21boi_1 VPWR VGND VPB VNB B1_N Y A1 A2
X0 a_300_297# a_27_413# Y VPB sky130_fd_pr__pfet_01v8_hvt ad=0.14 pd=1.28 as=0.265 ps=2.53 w=1 l=0.15
X1 VGND A2 a_384_47# VNB sky130_fd_pr__nfet_01v8 ad=0.17225 pd=1.83 as=0.091 ps=0.93 w=0.65 l=0.15
X2 VPWR B1_N a_27_413# VPB sky130_fd_pr__pfet_01v8_hvt ad=0.1113 pd=1.37 as=0.1113 ps=1.37 w=0.42 l=0.15
X3 Y a_27_413# VGND VNB sky130_fd_pr__nfet_01v8 ad=0.143 pd=1.09 as=0.101875 ps=0.99 w=0.65 l=0.15
X4 VPWR A1 a_300_297# VPB sky130_fd_pr__pfet_01v8_hvt ad=0.14 pd=1.28 as=0.14 ps=1.28 w=1 l=0.15
X5 a_384_47# A1 Y VNB sky130_fd_pr__nfet_01v8 ad=0.091 pd=0.93 as=0.143 ps=1.09 w=0.65 l=0.15
X6 VGND B1_N a_27_413# VNB sky130_fd_pr__nfet_01v8 ad=0.101875 pd=0.99 as=0.1113 ps=1.37 w=0.42 l=0.15
X7 a_300_297# A2 VPWR VPB sky130_fd_pr__pfet_01v8_hvt ad=0.265 pd=2.53 as=0.14 ps=1.28 w=1 l=0.15
.ends

.subckt sky130_fd_sc_hd__xor2_1 VNB VPB VPWR VGND A X B
X0 X a_35_297# a_285_297# VPB sky130_fd_pr__pfet_01v8_hvt ad=0.3 pd=2.6 as=0.26 ps=2.52 w=1 l=0.15
X1 X B a_285_47# VNB sky130_fd_pr__nfet_01v8 ad=0.25025 pd=1.42 as=0.08775 ps=0.92 w=0.65 l=0.15
X2 a_35_297# B VGND VNB sky130_fd_pr__nfet_01v8 ad=0.08775 pd=0.92 as=0.169 ps=1.82 w=0.65 l=0.15
X3 a_117_297# B a_35_297# VPB sky130_fd_pr__pfet_01v8_hvt ad=0.135 pd=1.27 as=0.26 ps=2.52 w=1 l=0.15
X4 VPWR B a_285_297# VPB sky130_fd_pr__pfet_01v8_hvt ad=0.26 pd=2.52 as=0.135 ps=1.27 w=1 l=0.15
X5 VGND A a_35_297# VNB sky130_fd_pr__nfet_01v8 ad=0.08775 pd=0.92 as=0.08775 ps=0.92 w=0.65 l=0.15
X6 VGND a_35_297# X VNB sky130_fd_pr__nfet_01v8 ad=0.208 pd=1.94 as=0.25025 ps=1.42 w=0.65 l=0.15
X7 a_285_297# A VPWR VPB sky130_fd_pr__pfet_01v8_hvt ad=0.135 pd=1.27 as=0.135 ps=1.27 w=1 l=0.15
X8 VPWR A a_117_297# VPB sky130_fd_pr__pfet_01v8_hvt ad=0.135 pd=1.27 as=0.135 ps=1.27 w=1 l=0.15
X9 a_285_47# A VGND VNB sky130_fd_pr__nfet_01v8 ad=0.08775 pd=0.92 as=0.08775 ps=0.92 w=0.65 l=0.15
.ends

.subckt sky130_fd_sc_hd__or2_1 VPB VNB VGND VPWR X A B
X0 VGND A a_68_297# VNB sky130_fd_pr__nfet_01v8 ad=0.10025 pd=0.985 as=0.0567 ps=0.69 w=0.42 l=0.15
X1 a_68_297# B VGND VNB sky130_fd_pr__nfet_01v8 ad=0.0567 pd=0.69 as=0.1092 ps=1.36 w=0.42 l=0.15
X2 X a_68_297# VGND VNB sky130_fd_pr__nfet_01v8 ad=0.169 pd=1.82 as=0.10025 ps=0.985 w=0.65 l=0.15
X3 VPWR A a_150_297# VPB sky130_fd_pr__pfet_01v8_hvt ad=0.14575 pd=1.335 as=0.0441 ps=0.63 w=0.42 l=0.15
X4 X a_68_297# VPWR VPB sky130_fd_pr__pfet_01v8_hvt ad=0.34 pd=2.68 as=0.14575 ps=1.335 w=1 l=0.15
X5 a_150_297# B a_68_297# VPB sky130_fd_pr__pfet_01v8_hvt ad=0.0441 pd=0.63 as=0.1092 ps=1.36 w=0.42 l=0.15
.ends

.subckt sky130_fd_sc_hd__or4_2 VPWR VGND VPB VNB B D C A X
X0 a_27_297# B VGND VNB sky130_fd_pr__nfet_01v8 ad=0.0567 pd=0.69 as=0.0567 ps=0.69 w=0.42 l=0.15
X1 a_27_297# D VGND VNB sky130_fd_pr__nfet_01v8 ad=0.0693 pd=0.75 as=0.1092 ps=1.36 w=0.42 l=0.15
X2 a_277_297# B a_205_297# VPB sky130_fd_pr__pfet_01v8_hvt ad=0.0693 pd=0.75 as=0.0441 ps=0.63 w=0.42 l=0.15
X3 VPWR A a_277_297# VPB sky130_fd_pr__pfet_01v8_hvt ad=0.14825 pd=1.34 as=0.0693 ps=0.75 w=0.42 l=0.15
X4 X a_27_297# VGND VNB sky130_fd_pr__nfet_01v8 ad=0.08775 pd=0.92 as=0.101875 ps=0.99 w=0.65 l=0.15
X5 a_205_297# C a_109_297# VPB sky130_fd_pr__pfet_01v8_hvt ad=0.0441 pd=0.63 as=0.0693 ps=0.75 w=0.42 l=0.15
X6 VPWR a_27_297# X VPB sky130_fd_pr__pfet_01v8_hvt ad=0.305 pd=2.61 as=0.135 ps=1.27 w=1 l=0.15
X7 VGND a_27_297# X VNB sky130_fd_pr__nfet_01v8 ad=0.19825 pd=1.91 as=0.08775 ps=0.92 w=0.65 l=0.15
X8 X a_27_297# VPWR VPB sky130_fd_pr__pfet_01v8_hvt ad=0.135 pd=1.27 as=0.14825 ps=1.34 w=1 l=0.15
X9 VGND C a_27_297# VNB sky130_fd_pr__nfet_01v8 ad=0.0567 pd=0.69 as=0.0693 ps=0.75 w=0.42 l=0.15
X10 a_109_297# D a_27_297# VPB sky130_fd_pr__pfet_01v8_hvt ad=0.0693 pd=0.75 as=0.1092 ps=1.36 w=0.42 l=0.15
X11 VGND A a_27_297# VNB sky130_fd_pr__nfet_01v8 ad=0.101875 pd=0.99 as=0.0567 ps=0.69 w=0.42 l=0.15
.ends

.subckt sky130_fd_sc_hd__xor2_2 VPWR VGND X B A VPB VNB
X0 a_27_297# A VPWR VPB sky130_fd_pr__pfet_01v8_hvt ad=0.135 pd=1.27 as=0.135 ps=1.27 w=1 l=0.15
X1 a_470_47# A VGND VNB sky130_fd_pr__nfet_01v8 ad=0.08775 pd=0.92 as=0.08775 ps=0.92 w=0.65 l=0.15
X2 a_470_297# A VPWR VPB sky130_fd_pr__pfet_01v8_hvt ad=0.135 pd=1.27 as=0.135 ps=1.27 w=1 l=0.15
X3 VPWR A a_470_297# VPB sky130_fd_pr__pfet_01v8_hvt ad=0.135 pd=1.27 as=0.26 ps=2.52 w=1 l=0.15
X4 a_112_47# B VGND VNB sky130_fd_pr__nfet_01v8 ad=0.08775 pd=0.92 as=0.08775 ps=0.92 w=0.65 l=0.15
X5 a_470_47# B X VNB sky130_fd_pr__nfet_01v8 ad=0.169 pd=1.82 as=0.105625 ps=0.975 w=0.65 l=0.15
X6 VGND A a_112_47# VNB sky130_fd_pr__nfet_01v8 ad=0.08775 pd=0.92 as=0.08775 ps=0.92 w=0.65 l=0.15
X7 a_112_47# A VGND VNB sky130_fd_pr__nfet_01v8 ad=0.08775 pd=0.92 as=0.17875 ps=1.85 w=0.65 l=0.15
X8 VGND B a_112_47# VNB sky130_fd_pr__nfet_01v8 ad=0.169 pd=1.82 as=0.08775 ps=0.92 w=0.65 l=0.15
X9 VPWR A a_27_297# VPB sky130_fd_pr__pfet_01v8_hvt ad=0.135 pd=1.27 as=0.275 ps=2.55 w=1 l=0.15
X10 a_470_297# B VPWR VPB sky130_fd_pr__pfet_01v8_hvt ad=0.26 pd=2.52 as=0.1625 ps=1.325 w=1 l=0.15
X11 X a_112_47# VGND VNB sky130_fd_pr__nfet_01v8 ad=0.08775 pd=0.92 as=0.169 ps=1.82 w=0.65 l=0.15
X12 VPWR B a_470_297# VPB sky130_fd_pr__pfet_01v8_hvt ad=0.1625 pd=1.325 as=0.135 ps=1.27 w=1 l=0.15
X13 VGND a_112_47# X VNB sky130_fd_pr__nfet_01v8 ad=0.169 pd=1.82 as=0.08775 ps=0.92 w=0.65 l=0.15
X14 VGND A a_470_47# VNB sky130_fd_pr__nfet_01v8 ad=0.08775 pd=0.92 as=0.169 ps=1.82 w=0.65 l=0.15
X15 a_27_297# B a_112_47# VPB sky130_fd_pr__pfet_01v8_hvt ad=0.26 pd=2.52 as=0.135 ps=1.27 w=1 l=0.15
X16 X a_112_47# a_470_297# VPB sky130_fd_pr__pfet_01v8_hvt ad=0.135 pd=1.27 as=0.26 ps=2.52 w=1 l=0.15
X17 a_470_297# a_112_47# X VPB sky130_fd_pr__pfet_01v8_hvt ad=0.28 pd=2.56 as=0.135 ps=1.27 w=1 l=0.15
X18 X B a_470_47# VNB sky130_fd_pr__nfet_01v8 ad=0.105625 pd=0.975 as=0.08775 ps=0.92 w=0.65 l=0.15
X19 a_112_47# B a_27_297# VPB sky130_fd_pr__pfet_01v8_hvt ad=0.135 pd=1.27 as=0.135 ps=1.27 w=1 l=0.15
.ends

.subckt sky130_fd_sc_hd__o21ai_1 VGND VPWR A2 B1 Y A1 VPB VNB
X0 Y A2 a_109_297# VPB sky130_fd_pr__pfet_01v8_hvt ad=0.174 pd=1.39 as=0.105 ps=1.21 w=1 l=0.15
X1 VPWR B1 Y VPB sky130_fd_pr__pfet_01v8_hvt ad=0.182 pd=1.92 as=0.174 ps=1.39 w=0.7 l=0.15
X2 a_27_47# A2 VGND VNB sky130_fd_pr__nfet_01v8 ad=0.08775 pd=0.92 as=0.10725 ps=0.98 w=0.65 l=0.15
X3 Y B1 a_27_47# VNB sky130_fd_pr__nfet_01v8 ad=0.169 pd=1.82 as=0.08775 ps=0.92 w=0.65 l=0.15
X4 a_109_297# A1 VPWR VPB sky130_fd_pr__pfet_01v8_hvt ad=0.105 pd=1.21 as=0.26 ps=2.52 w=1 l=0.15
X5 VGND A1 a_27_47# VNB sky130_fd_pr__nfet_01v8 ad=0.10725 pd=0.98 as=0.169 ps=1.82 w=0.65 l=0.15
.ends

.subckt sky130_fd_sc_hd__nor2_1 VPB VNB VGND VPWR A B Y
X0 VPWR A a_109_297# VPB sky130_fd_pr__pfet_01v8_hvt ad=0.26 pd=2.52 as=0.105 ps=1.21 w=1 l=0.15
X1 VGND A Y VNB sky130_fd_pr__nfet_01v8 ad=0.169 pd=1.82 as=0.08775 ps=0.92 w=0.65 l=0.15
X2 a_109_297# B Y VPB sky130_fd_pr__pfet_01v8_hvt ad=0.105 pd=1.21 as=0.26 ps=2.52 w=1 l=0.15
X3 Y B VGND VNB sky130_fd_pr__nfet_01v8 ad=0.08775 pd=0.92 as=0.169 ps=1.82 w=0.65 l=0.15
.ends

.subckt sky130_fd_sc_hd__or4_1 VPWR VGND VPB VNB B D C A X
X0 a_27_297# B VGND VNB sky130_fd_pr__nfet_01v8 ad=0.0567 pd=0.69 as=0.0567 ps=0.69 w=0.42 l=0.15
X1 a_27_297# D VGND VNB sky130_fd_pr__nfet_01v8 ad=0.0693 pd=0.75 as=0.1092 ps=1.36 w=0.42 l=0.15
X2 a_277_297# B a_205_297# VPB sky130_fd_pr__pfet_01v8_hvt ad=0.0693 pd=0.75 as=0.0441 ps=0.63 w=0.42 l=0.15
X3 VPWR A a_277_297# VPB sky130_fd_pr__pfet_01v8_hvt ad=0.14825 pd=1.34 as=0.0693 ps=0.75 w=0.42 l=0.15
X4 X a_27_297# VGND VNB sky130_fd_pr__nfet_01v8 ad=0.1755 pd=1.84 as=0.101875 ps=0.99 w=0.65 l=0.15
X5 a_205_297# C a_109_297# VPB sky130_fd_pr__pfet_01v8_hvt ad=0.0441 pd=0.63 as=0.0693 ps=0.75 w=0.42 l=0.15
X6 X a_27_297# VPWR VPB sky130_fd_pr__pfet_01v8_hvt ad=0.27 pd=2.54 as=0.14825 ps=1.34 w=1 l=0.15
X7 VGND C a_27_297# VNB sky130_fd_pr__nfet_01v8 ad=0.0567 pd=0.69 as=0.0693 ps=0.75 w=0.42 l=0.15
X8 a_109_297# D a_27_297# VPB sky130_fd_pr__pfet_01v8_hvt ad=0.0693 pd=0.75 as=0.1092 ps=1.36 w=0.42 l=0.15
X9 VGND A a_27_297# VNB sky130_fd_pr__nfet_01v8 ad=0.101875 pd=0.99 as=0.0567 ps=0.69 w=0.42 l=0.15
.ends

.subckt sky130_fd_sc_hd__and2b_1 X A_N B VGND VPWR VPB VNB
X0 VPWR B a_207_413# VPB sky130_fd_pr__pfet_01v8_hvt ad=0.2279 pd=1.74 as=0.0609 ps=0.71 w=0.42 l=0.15
X1 X a_207_413# VPWR VPB sky130_fd_pr__pfet_01v8_hvt ad=0.26 pd=2.52 as=0.2279 ps=1.74 w=1 l=0.15
X2 a_297_47# a_27_413# a_207_413# VNB sky130_fd_pr__nfet_01v8 ad=0.0504 pd=0.66 as=0.1092 ps=1.36 w=0.42 l=0.15
X3 X a_207_413# VGND VNB sky130_fd_pr__nfet_01v8 ad=0.169 pd=1.82 as=0.1013 ps=0.99 w=0.65 l=0.15
X4 a_207_413# a_27_413# VPWR VPB sky130_fd_pr__pfet_01v8_hvt ad=0.0609 pd=0.71 as=0.0714 ps=0.76 w=0.42 l=0.15
X5 VPWR A_N a_27_413# VPB sky130_fd_pr__pfet_01v8_hvt ad=0.0714 pd=0.76 as=0.1092 ps=1.36 w=0.42 l=0.15
X6 VGND B a_297_47# VNB sky130_fd_pr__nfet_01v8 ad=0.1013 pd=0.99 as=0.0504 ps=0.66 w=0.42 l=0.15
X7 a_27_413# A_N VGND VNB sky130_fd_pr__nfet_01v8 ad=0.1092 pd=1.36 as=0.1092 ps=1.36 w=0.42 l=0.15
.ends

.subckt sky130_fd_sc_hd__xnor2_2 VGND VPWR Y A B VPB VNB
X0 a_27_297# B VPWR VPB sky130_fd_pr__pfet_01v8_hvt ad=0.135 pd=1.27 as=0.135 ps=1.27 w=1 l=0.15
X1 a_560_47# A VGND VNB sky130_fd_pr__nfet_01v8 ad=0.08775 pd=0.92 as=0.182 ps=1.86 w=0.65 l=0.15
X2 VGND B a_560_47# VNB sky130_fd_pr__nfet_01v8 ad=0.169 pd=1.82 as=0.099125 ps=0.955 w=0.65 l=0.15
X3 Y B a_474_297# VPB sky130_fd_pr__pfet_01v8_hvt ad=0.1525 pd=1.305 as=0.135 ps=1.27 w=1 l=0.15
X4 VGND A a_27_47# VNB sky130_fd_pr__nfet_01v8 ad=0.08775 pd=0.92 as=0.08775 ps=0.92 w=0.65 l=0.15
X5 Y a_27_297# a_560_47# VNB sky130_fd_pr__nfet_01v8 ad=0.169 pd=1.82 as=0.08775 ps=0.92 w=0.65 l=0.15
X6 a_474_297# B Y VPB sky130_fd_pr__pfet_01v8_hvt ad=0.26 pd=2.52 as=0.1525 ps=1.305 w=1 l=0.15
X7 VGND A a_560_47# VNB sky130_fd_pr__nfet_01v8 ad=0.08775 pd=0.92 as=0.08775 ps=0.92 w=0.65 l=0.15
X8 a_27_47# B a_27_297# VNB sky130_fd_pr__nfet_01v8 ad=0.08775 pd=0.92 as=0.08775 ps=0.92 w=0.65 l=0.15
X9 a_27_297# B a_27_47# VNB sky130_fd_pr__nfet_01v8 ad=0.08775 pd=0.92 as=0.17875 ps=1.85 w=0.65 l=0.15
X10 a_27_47# A VGND VNB sky130_fd_pr__nfet_01v8 ad=0.182 pd=1.86 as=0.08775 ps=0.92 w=0.65 l=0.15
X11 VPWR B a_27_297# VPB sky130_fd_pr__pfet_01v8_hvt ad=0.135 pd=1.27 as=0.275 ps=2.55 w=1 l=0.15
X12 a_474_297# A VPWR VPB sky130_fd_pr__pfet_01v8_hvt ad=0.135 pd=1.27 as=0.135 ps=1.27 w=1 l=0.15
X13 a_560_47# a_27_297# Y VNB sky130_fd_pr__nfet_01v8 ad=0.08775 pd=0.92 as=0.169 ps=1.82 w=0.65 l=0.15
X14 VPWR A a_474_297# VPB sky130_fd_pr__pfet_01v8_hvt ad=0.135 pd=1.27 as=0.28 ps=2.56 w=1 l=0.15
X15 Y a_27_297# VPWR VPB sky130_fd_pr__pfet_01v8_hvt ad=0.135 pd=1.27 as=0.26 ps=2.52 w=1 l=0.15
X16 VPWR a_27_297# Y VPB sky130_fd_pr__pfet_01v8_hvt ad=0.28 pd=2.56 as=0.135 ps=1.27 w=1 l=0.15
X17 a_560_47# B VGND VNB sky130_fd_pr__nfet_01v8 ad=0.099125 pd=0.955 as=0.08775 ps=0.92 w=0.65 l=0.15
X18 a_27_297# A VPWR VPB sky130_fd_pr__pfet_01v8_hvt ad=0.28 pd=2.56 as=0.135 ps=1.27 w=1 l=0.15
X19 VPWR A a_27_297# VPB sky130_fd_pr__pfet_01v8_hvt ad=0.135 pd=1.27 as=0.135 ps=1.27 w=1 l=0.15
.ends

.subckt sky130_fd_sc_hd__a32o_1 VGND VPWR VPB VNB X A3 A2 A1 B1 B2