v {xschem version=3.4.6RC file_version=1.2
}
G {}
K {type=subcircuit
format="@name @pinlist @symname"
template="name=x1"
spice_sym_def="
* NGSPICE file created from clock_divider.ext - technology: sky130A

* Black-box entry subcircuit for sky130_fd_sc_hd__tapvpwrvgnd_1 abstract view
.subckt sky130_fd_sc_hd__tapvpwrvgnd_1 VGND VPWR
.ends

* Black-box entry subcircuit for sky130_fd_sc_hd__decap_8 abstract view
.subckt sky130_fd_sc_hd__decap_8 VGND VNB VPB VPWR
.ends

* Black-box entry subcircuit for sky130_fd_sc_hd__fill_2 abstract view
.subckt sky130_fd_sc_hd__fill_2 VGND VNB VPB VPWR
.ends

* Black-box entry subcircuit for sky130_ef_sc_hd__decap_12 abstract view
.subckt sky130_ef_sc_hd__decap_12 VPWR VGND VPB VNB
.ends

* Black-box entry subcircuit for sky130_fd_sc_hd__dfxtp_1 abstract view
.subckt sky130_fd_sc_hd__dfxtp_1 CLK D VGND VNB VPB VPWR Q
.ends

* Black-box entry subcircuit for sky130_fd_sc_hd__decap_3 abstract view
.subckt sky130_fd_sc_hd__decap_3 VGND VNB VPB VPWR
.ends

* Black-box entry subcircuit for sky130_fd_sc_hd__and3_1 abstract view
.subckt sky130_fd_sc_hd__and3_1 A B C VGND VNB VPB VPWR X
.ends

* Black-box entry subcircuit for sky130_fd_sc_hd__nand2_1 abstract view
.subckt sky130_fd_sc_hd__nand2_1 A B VGND VNB VPB VPWR Y
.ends

* Black-box entry subcircuit for sky130_fd_sc_hd__fill_1 abstract view
.subckt sky130_fd_sc_hd__fill_1 VGND VNB VPB VPWR
.ends

* Black-box entry subcircuit for sky130_fd_sc_hd__xnor2_1 abstract view
.subckt sky130_fd_sc_hd__xnor2_1 A B VGND VNB VPB VPWR Y
.ends

* Black-box entry subcircuit for sky130_fd_sc_hd__or3_1 abstract view
.subckt sky130_fd_sc_hd__or3_1 A B C VGND VNB VPB VPWR X
.ends

* Black-box entry subcircuit for sky130_fd_sc_hd__nand2b_1 abstract view
.subckt sky130_fd_sc_hd__nand2b_1 A_N B VGND VNB VPB VPWR Y
.ends

* Black-box entry subcircuit for sky130_fd_sc_hd__and2_1 abstract view
.subckt sky130_fd_sc_hd__and2_1 A B VGND VNB VPB VPWR X
.ends

* Black-box entry subcircuit for sky130_fd_sc_hd__or3_4 abstract view
.subckt sky130_fd_sc_hd__or3_4 A B C VGND VNB VPB VPWR X
.ends

* Black-box entry subcircuit for sky130_fd_sc_hd__decap_4 abstract view
.subckt sky130_fd_sc_hd__decap_4 VGND VNB VPB VPWR
.ends

* Black-box entry subcircuit for sky130_fd_sc_hd__a21oi_1 abstract view
.subckt sky130_fd_sc_hd__a21oi_1 A1 A2 B1 VGND VNB VPB VPWR Y
.ends

* Black-box entry subcircuit for sky130_fd_sc_hd__and3b_1 abstract view
.subckt sky130_fd_sc_hd__and3b_1 A_N B C VGND VNB VPB VPWR X
.ends

* Black-box entry subcircuit for sky130_fd_sc_hd__decap_6 abstract view
.subckt sky130_fd_sc_hd__decap_6 VGND VNB VPB VPWR
.ends

* Black-box entry subcircuit for sky130_fd_sc_hd__a21boi_2 abstract view
.subckt sky130_fd_sc_hd__a21boi_2 A1 A2 B1_N VGND VNB VPB VPWR Y
.ends

* Black-box entry subcircuit for sky130_fd_sc_hd__a21boi_1 abstract view
.subckt sky130_fd_sc_hd__a21boi_1 A1 A2 B1_N VGND VNB VPB VPWR Y
.ends

* Black-box entry subcircuit for sky130_fd_sc_hd__xor2_1 abstract view
.subckt sky130_fd_sc_hd__xor2_1 A B VGND VNB VPB VPWR X
.ends

* Black-box entry subcircuit for sky130_fd_sc_hd__or2_1 abstract view
.subckt sky130_fd_sc_hd__or2_1 A B VGND VNB VPB VPWR X
.ends

* Black-box entry subcircuit for sky130_fd_sc_hd__or4_2 abstract view
.subckt sky130_fd_sc_hd__or4_2 A B C D VGND VNB VPB VPWR X
.ends

* Black-box entry subcircuit for sky130_fd_sc_hd__xor2_2 abstract view
.subckt sky130_fd_sc_hd__xor2_2 A B VGND VNB VPB VPWR X
.ends

* Black-box entry subcircuit for sky130_fd_sc_hd__o21ai_1 abstract view
.subckt sky130_fd_sc_hd__o21ai_1 A1 A2 B1 VGND VNB VPB VPWR Y
.ends

* Black-box entry subcircuit for sky130_fd_sc_hd__nor2_1 abstract view
.subckt sky130_fd_sc_hd__nor2_1 A B VGND VNB VPB VPWR Y
.ends

* Black-box entry subcircuit for sky130_fd_sc_hd__or4_1 abstract view
.subckt sky130_fd_sc_hd__or4_1 A B C D VGND VNB VPB VPWR X
.ends

* Black-box entry subcircuit for sky130_fd_sc_hd__and2b_1 abstract view
.subckt sky130_fd_sc_hd__and2b_1 A_N B VGND VNB VPB VPWR X
.ends

* Black-box entry subcircuit for sky130_fd_sc_hd__xnor2_2 abstract view
.subckt sky130_fd_sc_hd__xnor2_2 A B VGND VNB VPB VPWR Y
.ends

* Black-box entry subcircuit for sky130_fd_sc_hd__a32o_1 abstract view
.subckt sky130_fd_sc_hd__a32o_1 A1 A2 A3 B1 B2 VGND VNB VPB VPWR X
.ends

* Black-box entry subcircuit for sky130_fd_sc_hd__inv_2 abstract view
.subckt sky130_fd_sc_hd__inv_2 A VGND VNB VPB VPWR Y
.ends

* Black-box entry subcircuit for sky130_fd_sc_hd__a21o_1 abstract view
.subckt sky130_fd_sc_hd__a21o_1 A1 A2 B1 VGND VNB VPB VPWR X
.ends

* Black-box entry subcircuit for sky130_fd_sc_hd__o211ai_1 abstract view
.subckt sky130_fd_sc_hd__o211ai_1 A1 A2 B1 C1 VGND VNB VPB VPWR Y
.ends

* Black-box entry subcircuit for sky130_fd_sc_hd__a31o_1 abstract view
.subckt sky130_fd_sc_hd__a31o_1 A1 A2 A3 B1 VGND VNB VPB VPWR X
.ends

* Black-box entry subcircuit for sky130_fd_sc_hd__or4b_1 abstract view
.subckt sky130_fd_sc_hd__or4b_1 A B C D_N VGND VNB VPB VPWR X
.ends

* Black-box entry subcircuit for sky130_fd_sc_hd__a211oi_1 abstract view
.subckt sky130_fd_sc_hd__a211oi_1 A1 A2 B1 C1 VGND VNB VPB VPWR Y
.ends

* Black-box entry subcircuit for sky130_fd_sc_hd__o31a_1 abstract view
.subckt sky130_fd_sc_hd__o31a_1 A1 A2 A3 B1 VGND VNB VPB VPWR X
.ends

* Black-box entry subcircuit for sky130_fd_sc_hd__and4_1 abstract view
.subckt sky130_fd_sc_hd__and4_1 A B C D VGND VNB VPB VPWR X
.ends

* Black-box entry subcircuit for sky130_fd_sc_hd__a31oi_2 abstract view
.subckt sky130_fd_sc_hd__a31oi_2 A1 A2 A3 B1 VGND VNB VPB VPWR Y
.ends

* Black-box entry subcircuit for sky130_fd_sc_hd__a21oi_2 abstract view
.subckt sky130_fd_sc_hd__a21oi_2 A1 A2 B1 VGND VNB VPB VPWR Y
.ends

* Black-box entry subcircuit for sky130_fd_sc_hd__o21ai_2 abstract view
.subckt sky130_fd_sc_hd__o21ai_2 A1 A2 B1 VGND VNB VPB VPWR Y
.ends

* Black-box entry subcircuit for sky130_fd_sc_hd__o21ai_4 abstract view
.subckt sky130_fd_sc_hd__o21ai_4 A1 A2 B1 VGND VNB VPB VPWR Y
.ends

* Black-box entry subcircuit for sky130_fd_sc_hd__o211ai_2 abstract view
.subckt sky130_fd_sc_hd__o211ai_2 A1 A2 B1 C1 VGND VNB VPB VPWR Y
.ends

* Black-box entry subcircuit for sky130_fd_sc_hd__a21bo_1 abstract view
.subckt sky130_fd_sc_hd__a21bo_1 A1 A2 B1_N VGND VNB VPB VPWR X
.ends

* Black-box entry subcircuit for sky130_fd_sc_hd__or3_2 abstract view
.subckt sky130_fd_sc_hd__or3_2 A B C VGND VNB VPB VPWR X
.ends

* Black-box entry subcircuit for sky130_fd_sc_hd__mux2_1 abstract view
.subckt sky130_fd_sc_hd__mux2_1 A0 A1 S VGND VNB VPB VPWR X
.ends

* Black-box entry subcircuit for sky130_fd_sc_hd__a211o_1 abstract view
.subckt sky130_fd_sc_hd__a211o_1 A1 A2 B1 C1 VGND VNB VPB VPWR X
.ends

* Black-box entry subcircuit for sky130_fd_sc_hd__o21ba_1 abstract view
.subckt sky130_fd_sc_hd__o21ba_1 A1 A2 B1_N VGND VNB VPB VPWR X
.ends

* Black-box entry subcircuit for sky130_fd_sc_hd__o21bai_1 abstract view
.subckt sky130_fd_sc_hd__o21bai_1 A1 A2 B1_N VGND VNB VPB VPWR Y
.ends

* Black-box entry subcircuit for sky130_fd_sc_hd__xnor2_4 abstract view
.subckt sky130_fd_sc_hd__xnor2_4 A B VGND VNB VPB VPWR Y
.ends

* Black-box entry subcircuit for sky130_fd_sc_hd__xor2_4 abstract view
.subckt sky130_fd_sc_hd__xor2_4 A B VGND VNB VPB VPWR X
.ends

* Black-box entry subcircuit for sky130_fd_sc_hd__buf_2 abstract view
.subckt sky130_fd_sc_hd__buf_2 A VGND VNB VPB VPWR X
.ends

* Black-box entry subcircuit for sky130_fd_sc_hd__nand3_1 abstract view
.subckt sky130_fd_sc_hd__nand3_1 A B C VGND VNB VPB VPWR Y
.ends

* Black-box entry subcircuit for sky130_fd_sc_hd__nand2_2 abstract view
.subckt sky130_fd_sc_hd__nand2_2 A B VGND VNB VPB VPWR Y
.ends

* Black-box entry subcircuit for sky130_fd_sc_hd__o211a_1 abstract view
.subckt sky130_fd_sc_hd__o211a_1 A1 A2 B1 C1 VGND VNB VPB VPWR X
.ends

* Black-box entry subcircuit for sky130_fd_sc_hd__a21o_2 abstract view
.subckt sky130_fd_sc_hd__a21o_2 A1 A2 B1 VGND VNB VPB VPWR X
.ends

* Black-box entry subcircuit for sky130_fd_sc_hd__clkbuf_2 abstract view
.subckt sky130_fd_sc_hd__clkbuf_2 A VGND VNB VPB VPWR X
.ends

* Black-box entry subcircuit for sky130_fd_sc_hd__clkbuf_4 abstract view
.subckt sky130_fd_sc_hd__clkbuf_4 A VGND VNB VPB VPWR X
.ends

* Black-box entry subcircuit for sky130_fd_sc_hd__buf_1 abstract view
.subckt sky130_fd_sc_hd__buf_1 A VGND VNB VPB VPWR X
.ends

* Black-box entry subcircuit for sky130_fd_sc_hd__o31ai_1 abstract view
.subckt sky130_fd_sc_hd__o31ai_1 A1 A2 A3 B1 VGND VNB VPB VPWR Y
.ends

* Black-box entry subcircuit for sky130_fd_sc_hd__o21a_1 abstract view
.subckt sky130_fd_sc_hd__o21a_1 A1 A2 B1 VGND VNB VPB VPWR X
.ends

* Black-box entry subcircuit for sky130_fd_sc_hd__a22o_1 abstract view
.subckt sky130_fd_sc_hd__a22o_1 A1 A2 B1 B2 VGND VNB VPB VPWR X
.ends

* Black-box entry subcircuit for sky130_fd_sc_hd__or2_2 abstract view
.subckt sky130_fd_sc_hd__or2_2 A B VGND VNB VPB VPWR X
.ends

* Black-box entry subcircuit for sky130_fd_sc_hd__clkbuf_1 abstract view
.subckt sky130_fd_sc_hd__clkbuf_1 A VGND VNB VPB VPWR X
.ends

* Black-box entry subcircuit for sky130_fd_sc_hd__or3b_2 abstract view
.subckt sky130_fd_sc_hd__or3b_2 A B C_N VGND VNB VPB VPWR X
.ends

* Black-box entry subcircuit for sky130_fd_sc_hd__nor3b_1 abstract view
.subckt sky130_fd_sc_hd__nor3b_1 A B C_N VGND VNB VPB VPWR Y
.ends

* Black-box entry subcircuit for sky130_fd_sc_hd__dlymetal6s2s_1 abstract view
.subckt sky130_fd_sc_hd__dlymetal6s2s_1 A VGND VNB VPB VPWR X
.ends

* Black-box entry subcircuit for sky130_fd_sc_hd__nand3_2 abstract view
.subckt sky130_fd_sc_hd__nand3_2 A B C VGND VNB VPB VPWR Y
.ends

* Black-box entry subcircuit for sky130_fd_sc_hd__clkbuf_8 abstract view
.subckt sky130_fd_sc_hd__clkbuf_8 A VGND VNB VPB VPWR X
.ends

* Black-box entry subcircuit for sky130_fd_sc_hd__buf_4 abstract view
.subckt sky130_fd_sc_hd__buf_4 A VGND VNB VPB VPWR X
.ends

* Black-box entry subcircuit for sky130_fd_sc_hd__o21bai_4 abstract view
.subckt sky130_fd_sc_hd__o21bai_4 A1 A2 B1_N VGND VNB VPB VPWR Y
.ends

* Black-box entry subcircuit for sky130_fd_sc_hd__o22a_1 abstract view
.subckt sky130_fd_sc_hd__o22a_1 A1 A2 B1 B2 VGND VNB VPB VPWR X
.ends

* Black-box entry subcircuit for sky130_fd_sc_hd__o2bb2a_1 abstract view
.subckt sky130_fd_sc_hd__o2bb2a_1 A1_N A2_N B1 B2 VGND VNB VPB VPWR X
.ends

* Black-box entry subcircuit for sky130_fd_sc_hd__mux2_4 abstract view
.subckt sky130_fd_sc_hd__mux2_4 A0 A1 S VGND VNB VPB VPWR X
.ends

* Black-box entry subcircuit for sky130_fd_sc_hd__o2bb2ai_1 abstract view
.subckt sky130_fd_sc_hd__o2bb2ai_1 A1_N A2_N B1 B2 VGND VNB VPB VPWR Y
.ends

* Black-box entry subcircuit for sky130_fd_sc_hd__inv_6 abstract view
.subckt sky130_fd_sc_hd__inv_6 A VGND VNB VPB VPWR Y
.ends

* Black-box entry subcircuit for sky130_fd_sc_hd__and3_2 abstract view
.subckt sky130_fd_sc_hd__and3_2 A B C VGND VNB VPB VPWR X
.ends

* Black-box entry subcircuit for sky130_fd_sc_hd__nor3_1 abstract view
.subckt sky130_fd_sc_hd__nor3_1 A B C VGND VNB VPB VPWR Y
.ends

* Black-box entry subcircuit for sky130_fd_sc_hd__or3b_1 abstract view
.subckt sky130_fd_sc_hd__or3b_1 A B C_N VGND VNB VPB VPWR X
.ends

* Black-box entry subcircuit for sky130_fd_sc_hd__a2111o_1 abstract view
.subckt sky130_fd_sc_hd__a2111o_1 A1 A2 B1 C1 D1 VGND VNB VPB VPWR X
.ends

* Black-box entry subcircuit for sky130_fd_sc_hd__o311ai_2 abstract view
.subckt sky130_fd_sc_hd__o311ai_2 A1 A2 A3 B1 C1 VGND VNB VPB VPWR Y
.ends

* Black-box entry subcircuit for sky130_fd_sc_hd__a311o_1 abstract view
.subckt sky130_fd_sc_hd__a311o_1 A1 A2 A3 B1 C1 VGND VNB VPB VPWR X
.ends

.subckt clock_divider VGND VPWR clk_in clk_out nrst scale[0] scale[1] scale[2] scale[3]
+ scale[4] scale[5] scale[6] scale[7]
XTAP_TAPCELL_ROW_9_126 VGND VPWR sky130_fd_sc_hd__tapvpwrvgnd_1
XFILLER_0_7_70 VGND VGND VPWR VPWR sky130_fd_sc_hd__decap_8
XFILLER_0_23_225 VGND VGND VPWR VPWR sky130_fd_sc_hd__fill_2
XTAP_TAPCELL_ROW_23_183 VGND VPWR sky130_fd_sc_hd__tapvpwrvgnd_1
XFILLER_0_3_39 VPWR VGND VPWR VGND sky130_ef_sc_hd__decap_12
X_0985_ net24 _0004_ VGND VGND VPWR VPWR true_scale\\[9\\] sky130_fd_sc_hd__dfxtp_1
XPHY_EDGE_ROW_19_Left_61 VGND VGND VPWR VPWR sky130_fd_sc_hd__decap_3
XFILLER_0_18_29 VPWR VGND VPWR VGND sky130_ef_sc_hd__decap_12
X_0770_ _0292_ _0294_ _0315_ VGND VGND VPWR VPWR _0317_ sky130_fd_sc_hd__and3_1
X_0968_ count\\[28\\] _0481_ VGND VGND VPWR VPWR _0482_ sky130_fd_sc_hd__nand2_1
XFILLER_0_6_233 VGND VGND VPWR VPWR sky130_fd_sc_hd__decap_8
X_0899_ count\\[4\\] count\\[5\\] _0415_ VGND VGND VPWR VPWR _0436_ sky130_fd_sc_hd__and3_1
XPHY_EDGE_ROW_4_Left_46 VGND VGND VPWR VPWR sky130_fd_sc_hd__decap_3
XFILLER_0_37_125 VGND VGND VPWR VPWR sky130_fd_sc_hd__fill_2
XTAP_TAPCELL_ROW_40_248 VGND VPWR sky130_fd_sc_hd__tapvpwrvgnd_1
XFILLER_0_37_169 VGND VGND VPWR VPWR sky130_fd_sc_hd__fill_1
XFILLER_0_0_29 VPWR VGND VPWR VGND sky130_ef_sc_hd__decap_12
XFILLER_0_9_27 VPWR VGND VPWR VGND sky130_ef_sc_hd__decap_12
X_0822_ true_scale\\[23\\] _0071_ VGND VGND VPWR VPWR _0364_ sky130_fd_sc_hd__nand2_1
XFILLER_0_28_103 VPWR VGND VPWR VGND sky130_ef_sc_hd__decap_12
XTAP_TAPCELL_ROW_31_215 VGND VPWR sky130_fd_sc_hd__tapvpwrvgnd_1
XFILLER_0_10_85 VPWR VGND VPWR VGND sky130_ef_sc_hd__decap_12
XFILLER_0_3_225 VPWR VGND VPWR VGND sky130_ef_sc_hd__decap_12
X_0684_ _0212_ _0234_ VGND VGND VPWR VPWR _0236_ sky130_fd_sc_hd__xnor2_1
X_0753_ _0147_ _0299_ VGND VGND VPWR VPWR _0301_ sky130_fd_sc_hd__xnor2_1
XFILLER_0_19_158 VGND VGND VPWR VPWR sky130_fd_sc_hd__decap_3
XFILLER_0_19_169 VPWR VGND VPWR VGND sky130_ef_sc_hd__decap_12
XFILLER_0_40_109 VPWR VGND VPWR VGND sky130_ef_sc_hd__decap_12
X_1021_ net27 _0040_ VGND VGND VPWR VPWR count\\[18\\] sky130_fd_sc_hd__dfxtp_1
XFILLER_0_21_95 VGND VGND VPWR VPWR sky130_fd_sc_hd__fill_1
X_0805_ net21 _0348_ _0349_ VGND VGND VPWR VPWR _0350_ sky130_fd_sc_hd__or3_1
X_0667_ _0219_ _0218_ VGND VGND VPWR VPWR _0220_ sky130_fd_sc_hd__nand2b_1
X_0598_ _0129_ _0153_ VGND VGND VPWR VPWR _0154_ sky130_fd_sc_hd__xnor2_1
X_0736_ _0283_ _0284_ VGND VGND VPWR VPWR _0285_ sky130_fd_sc_hd__and2_1
XFILLER_0_34_3 VPWR VGND VPWR VGND sky130_ef_sc_hd__decap_12
XFILLER_0_22_109 VPWR VGND VPWR VGND sky130_ef_sc_hd__decap_12
XFILLER_0_26_29 VGND VGND VPWR VPWR sky130_fd_sc_hd__decap_8
XFILLER_0_38_242 VGND VGND VPWR VPWR sky130_fd_sc_hd__decap_3
X_0521_ net4 net20 net18 VGND VGND VPWR VPWR _0082_ sky130_fd_sc_hd__or3_4
XFILLER_0_21_131 VGND VGND VPWR VPWR sky130_fd_sc_hd__decap_4
X_1004_ net23 _0023_ VGND VGND VPWR VPWR count\\[1\\] sky130_fd_sc_hd__dfxtp_1
XFILLER_0_32_72 VGND VGND VPWR VPWR sky130_fd_sc_hd__fill_1
XFILLER_0_32_83 VGND VGND VPWR VPWR sky130_fd_sc_hd__fill_1
XFILLER_0_12_131 VGND VGND VPWR VPWR sky130_fd_sc_hd__fill_1
XFILLER_0_12_197 VGND VGND VPWR VPWR sky130_fd_sc_hd__fill_1
X_0719_ _0240_ _0241_ _0268_ VGND VGND VPWR VPWR _0269_ sky130_fd_sc_hd__a21oi_1
XPHY_EDGE_ROW_33_Left_75 VGND VGND VPWR VPWR sky130_fd_sc_hd__decap_3
XTAP_TAPCELL_ROW_26_192 VGND VPWR sky130_fd_sc_hd__tapvpwrvgnd_1
X_0504_ true_scale\\[18\\] true_scale\\[19\\] _0068_ VGND VGND VPWR VPWR _0069_ sky130_fd_sc_hd__or3_1
XTAP_TAPCELL_ROW_9_127 VGND VPWR sky130_fd_sc_hd__tapvpwrvgnd_1
XFILLER_0_2_109 VPWR VGND VPWR VGND sky130_ef_sc_hd__decap_12
X_0984_ net25 _0003_ VGND VGND VPWR VPWR true_scale\\[8\\] sky130_fd_sc_hd__dfxtp_1
XFILLER_0_38_71 VGND VGND VPWR VPWR sky130_fd_sc_hd__fill_1
XTAP_TAPCELL_ROW_11_132 VGND VPWR sky130_fd_sc_hd__tapvpwrvgnd_1
XPHY_EDGE_ROW_20_Left_62 VGND VGND VPWR VPWR sky130_fd_sc_hd__decap_3
XTAP_TAPCELL_ROW_34_224 VGND VPWR sky130_fd_sc_hd__tapvpwrvgnd_1
XFILLER_0_40_61 VPWR VGND VPWR VGND sky130_ef_sc_hd__decap_12
X_0967_ _0481_ net12 _0480_ VGND VGND VPWR VPWR _0049_ sky130_fd_sc_hd__and3b_1
XFILLER_0_24_95 VGND VGND VPWR VPWR sky130_fd_sc_hd__fill_2
X_0898_ net11 _0434_ _0435_ VGND VGND VPWR VPWR _0026_ sky130_fd_sc_hd__and3_1
XPHY_EDGE_ROW_12_Right_12 VGND VGND VPWR VPWR sky130_fd_sc_hd__decap_3
XFILLER_0_4_61 VPWR VGND VPWR VGND sky130_ef_sc_hd__decap_12
XPHY_EDGE_ROW_21_Right_21 VGND VGND VPWR VPWR sky130_fd_sc_hd__decap_3
XTAP_TAPCELL_ROW_40_249 VGND VPWR sky130_fd_sc_hd__tapvpwrvgnd_1
XFILLER_0_37_104 VGND VGND VPWR VPWR sky130_fd_sc_hd__decap_8
XFILLER_0_37_148 VGND VGND VPWR VPWR sky130_fd_sc_hd__decap_6
XPHY_EDGE_ROW_30_Right_30 VGND VGND VPWR VPWR sky130_fd_sc_hd__decap_3
XFILLER_0_9_39 VPWR VGND VPWR VGND sky130_ef_sc_hd__decap_12
X_0821_ count\\[23\\] _0362_ VGND VGND VPWR VPWR _0363_ sky130_fd_sc_hd__xnor2_1
X_0752_ _0147_ _0299_ VGND VGND VPWR VPWR _0300_ sky130_fd_sc_hd__nand2_1
XFILLER_0_10_97 VPWR VGND VPWR VGND sky130_ef_sc_hd__decap_12
XFILLER_0_10_53 VGND VGND VPWR VPWR sky130_fd_sc_hd__fill_1
XFILLER_0_3_237 VGND VGND VPWR VPWR sky130_fd_sc_hd__decap_8
X_0683_ _0212_ _0234_ VGND VGND VPWR VPWR _0235_ sky130_fd_sc_hd__and2_1
XTAP_TAPCELL_ROW_0_90 VGND VPWR sky130_fd_sc_hd__tapvpwrvgnd_1
XFILLER_0_19_84 VPWR VGND VPWR VGND sky130_ef_sc_hd__decap_12
XFILLER_0_19_104 VGND VGND VPWR VPWR sky130_fd_sc_hd__decap_3
XFILLER_0_27_181 VGND VGND VPWR VPWR sky130_fd_sc_hd__decap_8
XFILLER_0_34_129 VGND VGND VPWR VPWR sky130_fd_sc_hd__decap_4
XFILLER_0_33_140 VGND VGND VPWR VPWR sky130_fd_sc_hd__decap_8
XFILLER_0_33_184 VGND VGND VPWR VPWR sky130_fd_sc_hd__fill_1
X_1020_ net27 _0039_ VGND VGND VPWR VPWR count\\[17\\] sky130_fd_sc_hd__dfxtp_1
X_0735_ _0147_ _0262_ _0261_ VGND VGND VPWR VPWR _0284_ sky130_fd_sc_hd__a21boi_2
X_0804_ _0334_ _0340_ _0347_ VGND VGND VPWR VPWR _0349_ sky130_fd_sc_hd__and3_1
X_0666_ _0195_ _0197_ _0196_ VGND VGND VPWR VPWR _0219_ sky130_fd_sc_hd__a21boi_1
X_0597_ _0150_ _0151_ VGND VGND VPWR VPWR _0153_ sky130_fd_sc_hd__xor2_1
XFILLER_0_1_51 VGND VGND VPWR VPWR sky130_fd_sc_hd__decap_4
XFILLER_0_27_3 VPWR VGND VPWR VGND sky130_ef_sc_hd__decap_12
XFILLER_0_15_162 VGND VGND VPWR VPWR sky130_fd_sc_hd__fill_1
XFILLER_0_30_187 VGND VGND VPWR VPWR sky130_fd_sc_hd__fill_1
XFILLER_0_21_143 VGND VGND VPWR VPWR sky130_fd_sc_hd__decap_8
X_0520_ net19 net18 VGND VGND VPWR VPWR _0081_ sky130_fd_sc_hd__or2_1
X_1003_ net23 _0022_ VGND VGND VPWR VPWR count\\[0\\] sky130_fd_sc_hd__dfxtp_1
XFILLER_0_16_41 VGND VGND VPWR VPWR sky130_fd_sc_hd__decap_3
XFILLER_0_29_221 VGND VGND VPWR VPWR sky130_fd_sc_hd__decap_3
XFILLER_0_29_243 VGND VGND VPWR VPWR sky130_fd_sc_hd__fill_2
XPHY_EDGE_ROW_6_Right_6 VGND VGND VPWR VPWR sky130_fd_sc_hd__decap_3
X_0718_ _0239_ _0249_ _0251_ VGND VGND VPWR VPWR _0268_ sky130_fd_sc_hd__or3_1
X_0649_ _0201_ _0202_ VGND VGND VPWR VPWR _0203_ sky130_fd_sc_hd__and2_1
XFILLER_0_7_181 VPWR VGND VPWR VGND sky130_ef_sc_hd__decap_12
XTAP_TAPCELL_ROW_26_193 VGND VPWR sky130_fd_sc_hd__tapvpwrvgnd_1
X_0503_ true_scale\\[15\\] true_scale\\[16\\] true_scale\\[17\\] _0066_ VGND VGND VPWR VPWR
+ _0068_ sky130_fd_sc_hd__or4_2
XFILLER_0_17_213 VGND VGND VPWR VPWR sky130_fd_sc_hd__decap_8
XFILLER_0_32_205 VGND VGND VPWR VPWR sky130_fd_sc_hd__decap_3
XFILLER_0_4_195 VGND VGND VPWR VPWR sky130_fd_sc_hd__fill_1
XFILLER_0_13_42 VPWR VGND VPWR VGND sky130_ef_sc_hd__decap_12
X_0983_ net23 _0002_ VGND VGND VPWR VPWR true_scale\\[7\\] sky130_fd_sc_hd__dfxtp_1
XTAP_TAPCELL_ROW_28_200 VGND VPWR sky130_fd_sc_hd__tapvpwrvgnd_1
XTAP_TAPCELL_ROW_11_133 VGND VPWR sky130_fd_sc_hd__tapvpwrvgnd_1
XFILLER_0_24_85 VGND VGND VPWR VPWR sky130_fd_sc_hd__decap_3
XTAP_TAPCELL_ROW_34_225 VGND VPWR sky130_fd_sc_hd__tapvpwrvgnd_1
X_0966_ count\\[26\\] count\\[27\\] _0476_ VGND VGND VPWR VPWR _0481_ sky130_fd_sc_hd__and3_1
X_0897_ count\\[4\\] _0415_ VGND VGND VPWR VPWR _0435_ sky130_fd_sc_hd__or2_1
XFILLER_0_4_73 VGND VGND VPWR VPWR sky130_fd_sc_hd__decap_8
XFILLER_0_3_205 VPWR VGND VPWR VGND sky130_ef_sc_hd__decap_12
X_0820_ true_scale\\[24\\] _0072_ VGND VGND VPWR VPWR _0362_ sky130_fd_sc_hd__xor2_1
X_0751_ _0296_ _0297_ VGND VGND VPWR VPWR _0299_ sky130_fd_sc_hd__xnor2_1
XTAP_TAPCELL_ROW_0_91 VGND VPWR sky130_fd_sc_hd__tapvpwrvgnd_1
X_0682_ _0231_ _0232_ VGND VGND VPWR VPWR _0234_ sky130_fd_sc_hd__xor2_1
XFILLER_0_19_96 VGND VGND VPWR VPWR sky130_fd_sc_hd__decap_8
XFILLER_0_34_119 VGND VGND VPWR VPWR sky130_fd_sc_hd__decap_3
X_0949_ _0468_ _0469_ net12 VGND VGND VPWR VPWR _0043_ sky130_fd_sc_hd__and3b_1
XFILLER_0_33_196 VGND VGND VPWR VPWR sky130_fd_sc_hd__decap_3
X_0665_ _0214_ _0217_ VGND VGND VPWR VPWR _0218_ sky130_fd_sc_hd__xor2_2
XFILLER_0_21_53 VGND VGND VPWR VPWR sky130_fd_sc_hd__decap_3
X_0734_ _0147_ _0282_ VGND VGND VPWR VPWR _0283_ sky130_fd_sc_hd__xnor2_1
X_0803_ _0334_ _0340_ _0347_ VGND VGND VPWR VPWR _0348_ sky130_fd_sc_hd__a21oi_1
X_0596_ _0150_ _0151_ VGND VGND VPWR VPWR _0152_ sky130_fd_sc_hd__nand2_1
XFILLER_0_38_211 VGND VGND VPWR VPWR sky130_fd_sc_hd__decap_4
X_1002_ net29 _0021_ VGND VGND VPWR VPWR true_scale\\[26\\] sky130_fd_sc_hd__dfxtp_1
XFILLER_0_32_85 VGND VGND VPWR VPWR sky130_fd_sc_hd__fill_2
X_0648_ _0198_ _0199_ _0200_ VGND VGND VPWR VPWR _0202_ sky130_fd_sc_hd__o21ai_1
XFILLER_0_12_155 VPWR VGND VPWR VGND sky130_ef_sc_hd__decap_12
X_0717_ _0263_ _0264_ VGND VGND VPWR VPWR _0267_ sky130_fd_sc_hd__xor2_1
X_0579_ _0129_ _0135_ VGND VGND VPWR VPWR _0136_ sky130_fd_sc_hd__xnor2_1
XFILLER_0_35_203 VGND VGND VPWR VPWR sky130_fd_sc_hd__decap_8
XFILLER_0_7_193 VPWR VGND VPWR VGND sky130_ef_sc_hd__decap_12
XFILLER_0_9_3 VPWR VGND VPWR VGND sky130_ef_sc_hd__decap_12
XTAP_TAPCELL_ROW_26_194 VGND VPWR sky130_fd_sc_hd__tapvpwrvgnd_1
XFILLER_0_26_236 VGND VGND VPWR VPWR sky130_fd_sc_hd__decap_8
X_0502_ true_scale\\[15\\] _0066_ VGND VGND VPWR VPWR _0067_ sky130_fd_sc_hd__nor2_1
XFILLER_0_4_141 VPWR VGND VPWR VGND sky130_ef_sc_hd__decap_12
XFILLER_0_32_228 VGND VGND VPWR VPWR sky130_fd_sc_hd__fill_1
XFILLER_0_7_84 VGND VGND VPWR VPWR sky130_fd_sc_hd__decap_4
XFILLER_0_13_32 VGND VGND VPWR VPWR sky130_fd_sc_hd__decap_3
XFILLER_0_13_54 VGND VGND VPWR VPWR sky130_fd_sc_hd__fill_2
X_0982_ net25 _0001_ VGND VGND VPWR VPWR true_scale\\[6\\] sky130_fd_sc_hd__dfxtp_1
XFILLER_0_1_111 VGND VGND VPWR VPWR sky130_fd_sc_hd__fill_1
XFILLER_0_9_244 VGND VGND VPWR VPWR sky130_fd_sc_hd__fill_1
XTAP_TAPCELL_ROW_5_110 VGND VPWR sky130_fd_sc_hd__tapvpwrvgnd_1
XTAP_TAPCELL_ROW_28_201 VGND VPWR sky130_fd_sc_hd__tapvpwrvgnd_1
XTAP_TAPCELL_ROW_11_134 VGND VPWR sky130_fd_sc_hd__tapvpwrvgnd_1
XFILLER_0_11_209 VGND VGND VPWR VPWR sky130_fd_sc_hd__fill_1
XTAP_TAPCELL_ROW_34_226 VGND VPWR sky130_fd_sc_hd__tapvpwrvgnd_1
X_0965_ count\\[27\\] _0478_ VGND VGND VPWR VPWR _0480_ sky130_fd_sc_hd__or2_1
X_0896_ count\\[4\\] _0415_ VGND VGND VPWR VPWR _0434_ sky130_fd_sc_hd__nand2_1
XFILLER_0_4_85 VPWR VGND VPWR VGND sky130_ef_sc_hd__decap_12
XFILLER_0_3_217 VGND VGND VPWR VPWR sky130_fd_sc_hd__decap_6
X_0681_ _0231_ _0232_ VGND VGND VPWR VPWR _0233_ sky130_fd_sc_hd__and2_1
X_0750_ _0297_ _0296_ VGND VGND VPWR VPWR _0298_ sky130_fd_sc_hd__nand2b_1
XFILLER_0_19_53 VGND VGND VPWR VPWR sky130_fd_sc_hd__decap_3
X_0948_ count\\[21\\] _0466_ VGND VGND VPWR VPWR _0469_ sky130_fd_sc_hd__or2_1
XFILLER_0_27_150 VGND VGND VPWR VPWR sky130_fd_sc_hd__decap_6
X_0879_ _0401_ _0402_ _0404_ _0420_ VGND VGND VPWR VPWR _0421_ sky130_fd_sc_hd__or4_1
XFILLER_0_0_209 VPWR VGND VPWR VGND sky130_ef_sc_hd__decap_12
X_0802_ _0345_ _0346_ VGND VGND VPWR VPWR _0347_ sky130_fd_sc_hd__and2b_1
X_0664_ _0094_ _0215_ VGND VGND VPWR VPWR _0217_ sky130_fd_sc_hd__xnor2_2
XFILLER_0_21_76 VGND VGND VPWR VPWR sky130_fd_sc_hd__decap_4
X_0733_ _0279_ _0280_ VGND VGND VPWR VPWR _0282_ sky130_fd_sc_hd__xor2_1
X_0595_ _0057_ net20 net18 _0095_ _0130_ VGND VGND VPWR VPWR _0151_ sky130_fd_sc_hd__a32o_1
XFILLER_0_38_234 VGND VGND VPWR VPWR sky130_fd_sc_hd__decap_8
X_1001_ net28 _0020_ VGND VGND VPWR VPWR true_scale\\[25\\] sky130_fd_sc_hd__dfxtp_1
X_0647_ _0198_ _0199_ _0200_ VGND VGND VPWR VPWR _0201_ sky130_fd_sc_hd__or3_1
XFILLER_0_12_167 VGND VGND VPWR VPWR sky130_fd_sc_hd__fill_1
X_0578_ _0131_ _0133_ VGND VGND VPWR VPWR _0135_ sky130_fd_sc_hd__xnor2_1
X_0716_ _0265_ VGND VGND VPWR VPWR _0266_ sky130_fd_sc_hd__inv_2
XFILLER_0_32_3 VPWR VGND VPWR VGND sky130_ef_sc_hd__decap_12
XFILLER_0_7_161 VGND VGND VPWR VPWR sky130_fd_sc_hd__decap_6
XTAP_TAPCELL_ROW_26_195 VGND VPWR sky130_fd_sc_hd__tapvpwrvgnd_1
XFILLER_0_26_215 VGND VGND VPWR VPWR sky130_fd_sc_hd__decap_6
X_0501_ true_scale\\[12\\] true_scale\\[13\\] true_scale\\[14\\] _0064_ VGND VGND VPWR VPWR
+ _0066_ sky130_fd_sc_hd__or4_2
XFILLER_0_17_204 VGND VGND VPWR VPWR sky130_fd_sc_hd__fill_2
XFILLER_0_4_197 VPWR VGND VPWR VGND sky130_ef_sc_hd__decap_12
XFILLER_0_4_153 VPWR VGND VPWR VGND sky130_ef_sc_hd__decap_12
XPHY_EDGE_ROW_37_Left_79 VGND VGND VPWR VPWR sky130_fd_sc_hd__decap_3
X_0981_ net25 _0000_ VGND VGND VPWR VPWR true_scale\\[5\\] sky130_fd_sc_hd__dfxtp_1
XFILLER_0_1_167 VGND VGND VPWR VPWR sky130_fd_sc_hd__fill_1
XTAP_TAPCELL_ROW_20_168 VGND VPWR sky130_fd_sc_hd__tapvpwrvgnd_1
XTAP_TAPCELL_ROW_5_111 VGND VPWR sky130_fd_sc_hd__tapvpwrvgnd_1
XTAP_TAPCELL_ROW_28_202 VGND VPWR sky130_fd_sc_hd__tapvpwrvgnd_1
XTAP_TAPCELL_ROW_11_135 VGND VPWR sky130_fd_sc_hd__tapvpwrvgnd_1
X_0964_ _0478_ _0479_ net12 VGND VGND VPWR VPWR _0048_ sky130_fd_sc_hd__and3b_1
XTAP_TAPCELL_ROW_34_227 VGND VPWR sky130_fd_sc_hd__tapvpwrvgnd_1
X_0895_ _0415_ net11 _0433_ VGND VGND VPWR VPWR _0025_ sky130_fd_sc_hd__and3b_1
XFILLER_0_10_243 VGND VGND VPWR VPWR sky130_fd_sc_hd__fill_2
XFILLER_0_4_97 VPWR VGND VPWR VGND sky130_ef_sc_hd__decap_12
X_0680_ _0214_ _0217_ _0216_ VGND VGND VPWR VPWR _0232_ sky130_fd_sc_hd__a21o_1
XPHY_EDGE_ROW_24_Left_66 VGND VGND VPWR VPWR sky130_fd_sc_hd__decap_3
XFILLER_0_36_195 VGND VGND VPWR VPWR sky130_fd_sc_hd__fill_1
X_0947_ count\\[21\\] _0466_ VGND VGND VPWR VPWR _0468_ sky130_fd_sc_hd__and2_1
X_0878_ _0406_ _0407_ _0419_ VGND VGND VPWR VPWR _0420_ sky130_fd_sc_hd__or3_1
XFILLER_0_18_151 VPWR VGND VPWR VGND sky130_ef_sc_hd__decap_12
XFILLER_0_33_121 VGND VGND VPWR VPWR sky130_fd_sc_hd__decap_3
X_0801_ _0328_ _0330_ _0343_ _0344_ VGND VGND VPWR VPWR _0346_ sky130_fd_sc_hd__o211ai_1
X_0663_ _0215_ _0094_ VGND VGND VPWR VPWR _0216_ sky130_fd_sc_hd__and2b_1
X_0594_ _0080_ _0148_ VGND VGND VPWR VPWR _0150_ sky130_fd_sc_hd__xor2_1
X_0732_ _0279_ _0280_ VGND VGND VPWR VPWR _0281_ sky130_fd_sc_hd__and2_1
XFILLER_0_15_154 VGND VGND VPWR VPWR sky130_fd_sc_hd__decap_8
XFILLER_0_21_113 VPWR VGND VPWR VGND sky130_ef_sc_hd__decap_12
XFILLER_0_21_135 VGND VGND VPWR VPWR sky130_fd_sc_hd__fill_1
X_1000_ net28 _0019_ VGND VGND VPWR VPWR true_scale\\[24\\] sky130_fd_sc_hd__dfxtp_1
XFILLER_0_8_129 VGND VGND VPWR VPWR sky130_fd_sc_hd__fill_1
XFILLER_0_29_213 VGND VGND VPWR VPWR sky130_fd_sc_hd__decap_8
XFILLER_0_32_54 VPWR VGND VPWR VGND sky130_ef_sc_hd__decap_12
XFILLER_0_12_102 VGND VGND VPWR VPWR sky130_fd_sc_hd__decap_6
X_0715_ _0263_ _0264_ VGND VGND VPWR VPWR _0265_ sky130_fd_sc_hd__or2_1
X_0646_ _0172_ _0178_ _0177_ VGND VGND VPWR VPWR _0200_ sky130_fd_sc_hd__a21oi_1
X_0577_ _0133_ _0131_ VGND VGND VPWR VPWR _0134_ sky130_fd_sc_hd__and2b_1
XPHY_EDGE_ROW_11_Left_53 VGND VGND VPWR VPWR sky130_fd_sc_hd__decap_3
XFILLER_0_25_3 VPWR VGND VPWR VGND sky130_ef_sc_hd__decap_12
XPHY_EDGE_ROW_19_Right_19 VGND VGND VPWR VPWR sky130_fd_sc_hd__decap_3
X_0500_ true_scale\\[12\\] _0064_ VGND VGND VPWR VPWR _0065_ sky130_fd_sc_hd__nor2_1
XPHY_EDGE_ROW_28_Right_28 VGND VGND VPWR VPWR sky130_fd_sc_hd__decap_3
XPHY_EDGE_ROW_37_Right_37 VGND VGND VPWR VPWR sky130_fd_sc_hd__decap_3
XFILLER_0_4_165 VPWR VGND VPWR VGND sky130_ef_sc_hd__decap_12
XFILLER_0_4_121 VPWR VGND VPWR VGND sky130_ef_sc_hd__decap_12
X_0629_ _0147_ _0183_ VGND VGND VPWR VPWR _0184_ sky130_fd_sc_hd__xnor2_1
XTAP_TAPCELL_ROW_8_120 VGND VPWR sky130_fd_sc_hd__tapvpwrvgnd_1
XTAP_TAPCELL_ROW_14_144 VGND VPWR sky130_fd_sc_hd__tapvpwrvgnd_1
XFILLER_0_13_78 VGND VGND VPWR VPWR sky130_fd_sc_hd__fill_1
X_0980_ _0055_ _0429_ _0489_ VGND VGND VPWR VPWR _0054_ sky130_fd_sc_hd__a21oi_1
XFILLER_0_1_113 VPWR VGND VPWR VGND sky130_ef_sc_hd__decap_12
XTAP_TAPCELL_ROW_37_236 VGND VPWR sky130_fd_sc_hd__tapvpwrvgnd_1
XTAP_TAPCELL_ROW_20_169 VGND VPWR sky130_fd_sc_hd__tapvpwrvgnd_1
XTAP_TAPCELL_ROW_28_203 VGND VPWR sky130_fd_sc_hd__tapvpwrvgnd_1
X_0894_ count\\[0\\] count\\[1\\] count\\[2\\] count\\[3\\] VGND VGND VPWR VPWR _0433_ sky130_fd_sc_hd__a31o_1
X_0963_ count\\[26\\] _0476_ VGND VGND VPWR VPWR _0479_ sky130_fd_sc_hd__or2_1
XFILLER_0_24_77 VGND VGND VPWR VPWR sky130_fd_sc_hd__fill_2
XFILLER_0_28_119 VPWR VGND VPWR VGND sky130_ef_sc_hd__decap_12
XFILLER_0_36_141 VPWR VGND VPWR VGND sky130_ef_sc_hd__decap_12
XFILLER_0_19_66 VPWR VGND VPWR VGND sky130_ef_sc_hd__decap_12
X_0877_ _0409_ _0410_ _0412_ _0418_ VGND VGND VPWR VPWR _0419_ sky130_fd_sc_hd__or4b_1
X_0946_ _0466_ _0467_ net12 VGND VGND VPWR VPWR _0042_ sky130_fd_sc_hd__and3b_1
XPHY_EDGE_ROW_41_Left_83 VGND VGND VPWR VPWR sky130_fd_sc_hd__decap_3
XFILLER_0_18_130 VGND VGND VPWR VPWR sky130_fd_sc_hd__decap_8
XFILLER_0_18_141 VGND VGND VPWR VPWR sky130_fd_sc_hd__fill_1
XFILLER_0_18_163 VPWR VGND VPWR VGND sky130_ef_sc_hd__decap_12
XFILLER_0_33_111 VGND VGND VPWR VPWR sky130_fd_sc_hd__fill_1
XFILLER_0_33_166 VGND VGND VPWR VPWR sky130_fd_sc_hd__fill_2
X_0800_ _0343_ _0344_ _0328_ _0330_ VGND VGND VPWR VPWR _0345_ sky130_fd_sc_hd__a211oi_1
XFILLER_0_21_89 VGND VGND VPWR VPWR sky130_fd_sc_hd__fill_1
X_0731_ _0128_ _0258_ _0257_ VGND VGND VPWR VPWR _0280_ sky130_fd_sc_hd__a21o_1
X_0662_ _0090_ _0096_ VGND VGND VPWR VPWR _0215_ sky130_fd_sc_hd__xnor2_2
X_0593_ _0077_ _0078_ _0079_ _0148_ VGND VGND VPWR VPWR _0149_ sky130_fd_sc_hd__o31a_1
XFILLER_0_1_55 VGND VGND VPWR VPWR sky130_fd_sc_hd__fill_1
X_0929_ count\\[13\\] count\\[14\\] count\\[15\\] _0450_ VGND VGND VPWR VPWR _0456_ sky130_fd_sc_hd__and4_1
XFILLER_0_15_188 VGND VGND VPWR VPWR sky130_fd_sc_hd__decap_3
XFILLER_0_30_169 VPWR VGND VPWR VGND sky130_ef_sc_hd__decap_12
XFILLER_0_21_125 VGND VGND VPWR VPWR sky130_fd_sc_hd__decap_3
XFILLER_0_21_169 VGND VGND VPWR VPWR sky130_fd_sc_hd__decap_6
XFILLER_0_29_225 VGND VGND VPWR VPWR sky130_fd_sc_hd__fill_2
XFILLER_0_32_66 VGND VGND VPWR VPWR sky130_fd_sc_hd__decap_6
X_0645_ _0196_ _0197_ _0195_ VGND VGND VPWR VPWR _0199_ sky130_fd_sc_hd__a21oi_1
X_0714_ net9 _0111_ _0247_ _0246_ VGND VGND VPWR VPWR _0264_ sky130_fd_sc_hd__a31oi_2